<configuration>
    <input>
        <net-file value="beta.net.xml"/>
        <route-files value="beta.rou.xml"/>
    </input>
    <time>
        <begin value="0"/>
        <end value="3000"/>
    </time>
</configuration>