<?xml version='1.0' encoding='utf-8'?>
<routes><vType id="car" accel="1.0" decel="4.5" sigma="0.5" length="5" minGap="2.5" maxSpeed="25" guiShape="passenger" /><vehicle id="veh663" type="car" depart="2.81" departLane="random" departSpeed="max"><route edges="-E1 E4" /></vehicle><vehicle id="veh237" type="car" depart="10.38" departLane="random" departSpeed="max"><route edges="-E1 E4" /></vehicle><vehicle id="veh133" type="car" depart="12.28" departLane="random" departSpeed="max"><route edges="-E1 E3" /></vehicle><vehicle id="veh785" type="car" depart="13.64" departLane="random" departSpeed="max"><route edges="-E1 E3" /></vehicle><vehicle id="veh500" type="car" depart="18.46" departLane="random" departSpeed="max"><route edges="-E1 E2" /></vehicle><vehicle id="veh273" type="car" depart="20.08" departLane="random" departSpeed="max"><route edges="-E3 E2" /></vehicle><vehicle id="veh383" type="car" depart="25.97" departLane="random" departSpeed="max"><route edges="-E3 E1" /></vehicle><vehicle id="veh725" type="car" depart="41.82" departLane="random" departSpeed="max"><route edges="-E3 E2" /></vehicle><vehicle id="veh862" type="car" depart="48.87" departLane="random" departSpeed="max"><route edges="-E2 E4" /></vehicle><vehicle id="veh551" type="car" depart="50.11" departLane="random" departSpeed="max"><route edges="-E1 E4" /></vehicle><vehicle id="veh354" type="car" depart="51.87" departLane="random" departSpeed="max"><route edges="-E1 E4" /></vehicle><vehicle id="veh448" type="car" depart="55.62" departLane="random" departSpeed="max"><route edges="-E3 E1" /></vehicle><vehicle id="veh457" type="car" depart="55.82" departLane="random" departSpeed="max"><route edges="-E1 E2" /></vehicle><vehicle id="veh673" type="car" depart="58.17" departLane="random" departSpeed="max"><route edges="-E2 E1" /></vehicle><vehicle id="veh83" type="car" depart="59.57" departLane="random" departSpeed="max"><route edges="-E3 E4" /></vehicle><vehicle id="veh978" type="car" depart="60.04" departLane="random" departSpeed="max"><route edges="-E2 E1" /></vehicle><vehicle id="veh189" type="car" depart="69.98" departLane="random" departSpeed="max"><route edges="-E1 E2" /></vehicle><vehicle id="veh64" type="car" depart="95.58" departLane="random" departSpeed="max"><route edges="-E3 E2" /></vehicle><vehicle id="veh891" type="car" depart="96.79" departLane="random" departSpeed="max"><route edges="-E3 E1" /></vehicle><vehicle id="veh562" type="car" depart="97.81" departLane="random" departSpeed="max"><route edges="-E2 E3" /></vehicle><vehicle id="veh441" type="car" depart="107.54" departLane="random" departSpeed="max"><route edges="-E1 E3" /></vehicle><vehicle id="veh680" type="car" depart="124.87" departLane="random" departSpeed="max"><route edges="-E1 E3" /></vehicle><vehicle id="veh731" type="car" depart="133.28" departLane="random" departSpeed="max"><route edges="-E4 E1" /></vehicle><vehicle id="veh995" type="car" depart="133.69" departLane="random" departSpeed="max"><route edges="-E1 E4" /></vehicle><vehicle id="veh298" type="car" depart="133.83" departLane="random" departSpeed="max"><route edges="-E3 E2" /></vehicle><vehicle id="veh139" type="car" depart="138.64" departLane="random" departSpeed="max"><route edges="-E3 E2" /></vehicle><vehicle id="veh151" type="car" depart="140.62" departLane="random" departSpeed="max"><route edges="-E2 E3" /></vehicle><vehicle id="veh25" type="car" depart="151.97" departLane="random" departSpeed="max"><route edges="-E3 E1" /></vehicle><vehicle id="veh428" type="car" depart="152.58" departLane="random" departSpeed="max"><route edges="-E1 E3" /></vehicle><vehicle id="veh525" type="car" depart="154.41" departLane="random" departSpeed="max"><route edges="-E1 E2" /></vehicle><vehicle id="veh378" type="car" depart="161.33" departLane="random" departSpeed="max"><route edges="-E4 E1" /></vehicle><vehicle id="veh807" type="car" depart="165.88" departLane="random" departSpeed="max"><route edges="-E2 E4" /></vehicle><vehicle id="veh755" type="car" depart="167.55" departLane="random" departSpeed="max"><route edges="-E4 E2" /></vehicle><vehicle id="veh330" type="car" depart="168.05" departLane="random" departSpeed="max"><route edges="-E2 E4" /></vehicle><vehicle id="veh77" type="car" depart="169.09" departLane="random" departSpeed="max"><route edges="-E1 E2" /></vehicle><vehicle id="veh15" type="car" depart="178.64" departLane="random" departSpeed="max"><route edges="-E4 E2" /></vehicle><vehicle id="veh340" type="car" depart="179.11" departLane="random" departSpeed="max"><route edges="-E1 E2" /></vehicle><vehicle id="veh576" type="car" depart="179.68" departLane="random" departSpeed="max"><route edges="-E3 E1" /></vehicle><vehicle id="veh287" type="car" depart="187.38" departLane="random" departSpeed="max"><route edges="-E4 E1" /></vehicle><vehicle id="veh403" type="car" depart="192.59" departLane="random" departSpeed="max"><route edges="-E1 E4" /></vehicle><vehicle id="veh231" type="car" depart="197.75" departLane="random" departSpeed="max"><route edges="-E4 E3" /></vehicle><vehicle id="veh515" type="car" depart="207.31" departLane="random" departSpeed="max"><route edges="-E1 E3" /></vehicle><vehicle id="veh12" type="car" depart="208.53" departLane="random" departSpeed="max"><route edges="-E2 E4" /></vehicle><vehicle id="veh97" type="car" depart="210.44" departLane="random" departSpeed="max"><route edges="-E3 E2" /></vehicle><vehicle id="veh365" type="car" depart="214.85" departLane="random" departSpeed="max"><route edges="-E1 E4" /></vehicle><vehicle id="veh96" type="car" depart="219.02" departLane="random" departSpeed="max"><route edges="-E2 E3" /></vehicle><vehicle id="veh214" type="car" depart="220.1" departLane="random" departSpeed="max"><route edges="-E3 E4" /></vehicle><vehicle id="veh207" type="car" depart="242.29" departLane="random" departSpeed="max"><route edges="-E3 E4" /></vehicle><vehicle id="veh275" type="car" depart="255.6" departLane="random" departSpeed="max"><route edges="-E2 E4" /></vehicle><vehicle id="veh844" type="car" depart="260.03" departLane="random" departSpeed="max"><route edges="-E1 E2" /></vehicle><vehicle id="veh526" type="car" depart="265.71" departLane="random" departSpeed="max"><route edges="-E2 E3" /></vehicle><vehicle id="veh468" type="car" depart="268.6" departLane="random" departSpeed="max"><route edges="-E3 E1" /></vehicle><vehicle id="veh817" type="car" depart="306.58" departLane="random" departSpeed="max"><route edges="-E3 E2" /></vehicle><vehicle id="veh545" type="car" depart="311.36" departLane="random" departSpeed="max"><route edges="-E4 E3" /></vehicle><vehicle id="veh73" type="car" depart="312.92" departLane="random" departSpeed="max"><route edges="-E3 E2" /></vehicle><vehicle id="veh50" type="car" depart="322.94" departLane="random" departSpeed="max"><route edges="-E1 E4" /></vehicle><vehicle id="veh94" type="car" depart="325.56" departLane="random" departSpeed="max"><route edges="-E4 E1" /></vehicle><vehicle id="veh644" type="car" depart="327.23" departLane="random" departSpeed="max"><route edges="-E2 E1" /></vehicle><vehicle id="veh302" type="car" depart="330.29" departLane="random" departSpeed="max"><route edges="-E2 E4" /></vehicle><vehicle id="veh311" type="car" depart="338.29" departLane="random" departSpeed="max"><route edges="-E4 E1" /></vehicle><vehicle id="veh361" type="car" depart="343.94" departLane="random" departSpeed="max"><route edges="-E1 E4" /></vehicle><vehicle id="veh867" type="car" depart="346.75" departLane="random" departSpeed="max"><route edges="-E2 E4" /></vehicle><vehicle id="veh108" type="car" depart="346.86" departLane="random" departSpeed="max"><route edges="-E1 E3" /></vehicle><vehicle id="veh900" type="car" depart="365.45" departLane="random" departSpeed="max"><route edges="-E4 E3" /></vehicle><vehicle id="veh16" type="car" depart="366.76" departLane="random" departSpeed="max"><route edges="-E3 E4" /></vehicle><vehicle id="veh787" type="car" depart="367.17" departLane="random" departSpeed="max"><route edges="-E1 E4" /></vehicle><vehicle id="veh601" type="car" depart="368.38" departLane="random" departSpeed="max"><route edges="-E2 E4" /></vehicle><vehicle id="veh476" type="car" depart="369.75" departLane="random" departSpeed="max"><route edges="-E4 E2" /></vehicle><vehicle id="veh852" type="car" depart="371.72" departLane="random" departSpeed="max"><route edges="-E3 E1" /></vehicle><vehicle id="veh191" type="car" depart="371.81" departLane="random" departSpeed="max"><route edges="-E1 E4" /></vehicle><vehicle id="veh63" type="car" depart="379.34" departLane="random" departSpeed="max"><route edges="-E3 E4" /></vehicle><vehicle id="veh62" type="car" depart="393.17" departLane="random" departSpeed="max"><route edges="-E4 E3" /></vehicle><vehicle id="veh728" type="car" depart="400.03" departLane="random" departSpeed="max"><route edges="-E1 E3" /></vehicle><vehicle id="veh228" type="car" depart="400.7" departLane="random" departSpeed="max"><route edges="-E4 E1" /></vehicle><vehicle id="veh762" type="car" depart="402.8" departLane="random" departSpeed="max"><route edges="-E4 E2" /></vehicle><vehicle id="veh165" type="car" depart="405.07" departLane="random" departSpeed="max"><route edges="-E1 E3" /></vehicle><vehicle id="veh218" type="car" depart="405.48" departLane="random" departSpeed="max"><route edges="-E2 E1" /></vehicle><vehicle id="veh932" type="car" depart="418.06" departLane="random" departSpeed="max"><route edges="-E4 E2" /></vehicle><vehicle id="veh439" type="car" depart="419.08" departLane="random" departSpeed="max"><route edges="-E1 E4" /></vehicle><vehicle id="veh530" type="car" depart="421.42" departLane="random" departSpeed="max"><route edges="-E1 E3" /></vehicle><vehicle id="veh316" type="car" depart="424.0" departLane="random" departSpeed="max"><route edges="-E1 E2" /></vehicle><vehicle id="veh592" type="car" depart="424.42" departLane="random" departSpeed="max"><route edges="-E4 E3" /></vehicle><vehicle id="veh308" type="car" depart="442.93" departLane="random" departSpeed="max"><route edges="-E2 E1" /></vehicle><vehicle id="veh128" type="car" depart="443.12" departLane="random" departSpeed="max"><route edges="-E4 E1" /></vehicle><vehicle id="veh722" type="car" depart="447.55" departLane="random" departSpeed="max"><route edges="-E1 E2" /></vehicle><vehicle id="veh212" type="car" depart="447.68" departLane="random" departSpeed="max"><route edges="-E2 E1" /></vehicle><vehicle id="veh126" type="car" depart="448.63" departLane="random" departSpeed="max"><route edges="-E2 E1" /></vehicle><vehicle id="veh2" type="car" depart="449.5" departLane="random" departSpeed="max"><route edges="-E4 E2" /></vehicle><vehicle id="veh514" type="car" depart="453.99" departLane="random" departSpeed="max"><route edges="-E2 E3" /></vehicle><vehicle id="veh47" type="car" depart="459.11" departLane="random" departSpeed="max"><route edges="-E3 E4" /></vehicle><vehicle id="veh829" type="car" depart="460.32" departLane="random" departSpeed="max"><route edges="-E1 E3" /></vehicle><vehicle id="veh697" type="car" depart="461.44" departLane="random" departSpeed="max"><route edges="-E2 E1" /></vehicle><vehicle id="veh674" type="car" depart="469.32" departLane="random" departSpeed="max"><route edges="-E4 E1" /></vehicle><vehicle id="veh460" type="car" depart="471.51" departLane="random" departSpeed="max"><route edges="-E4 E1" /></vehicle><vehicle id="veh335" type="car" depart="471.58" departLane="random" departSpeed="max"><route edges="-E3 E4" /></vehicle><vehicle id="veh234" type="car" depart="474.31" departLane="random" departSpeed="max"><route edges="-E2 E3" /></vehicle><vehicle id="veh913" type="car" depart="475.19" departLane="random" departSpeed="max"><route edges="-E2 E4" /></vehicle><vehicle id="veh173" type="car" depart="480.3" departLane="random" departSpeed="max"><route edges="-E3 E1" /></vehicle><vehicle id="veh486" type="car" depart="489.73" departLane="random" departSpeed="max"><route edges="-E1 E2" /></vehicle><vehicle id="veh595" type="car" depart="493.78" departLane="random" departSpeed="max"><route edges="-E1 E4" /></vehicle><vehicle id="veh894" type="car" depart="498.54" departLane="random" departSpeed="max"><route edges="-E1 E2" /></vehicle><vehicle id="veh772" type="car" depart="498.95" departLane="random" departSpeed="max"><route edges="-E2 E1" /></vehicle><vehicle id="veh432" type="car" depart="518.11" departLane="random" departSpeed="max"><route edges="-E4 E1" /></vehicle><vehicle id="veh861" type="car" depart="520.38" departLane="random" departSpeed="max"><route edges="-E3 E4" /></vehicle><vehicle id="veh927" type="car" depart="523.72" departLane="random" departSpeed="max"><route edges="-E4 E2" /></vehicle><vehicle id="veh624" type="car" depart="527.81" departLane="random" departSpeed="max"><route edges="-E3 E2" /></vehicle><vehicle id="veh449" type="car" depart="528.44" departLane="random" departSpeed="max"><route edges="-E4 E2" /></vehicle><vehicle id="veh387" type="car" depart="530.28" departLane="random" departSpeed="max"><route edges="-E1 E4" /></vehicle><vehicle id="veh609" type="car" depart="531.84" departLane="random" departSpeed="max"><route edges="-E4 E1" /></vehicle><vehicle id="veh976" type="car" depart="536.8" departLane="random" departSpeed="max"><route edges="-E2 E1" /></vehicle><vehicle id="veh671" type="car" depart="540.08" departLane="random" departSpeed="max"><route edges="-E3 E4" /></vehicle><vehicle id="veh475" type="car" depart="542.44" departLane="random" departSpeed="max"><route edges="-E3 E1" /></vehicle><vehicle id="veh101" type="car" depart="553.24" departLane="random" departSpeed="max"><route edges="-E3 E1" /></vehicle><vehicle id="veh653" type="car" depart="555.03" departLane="random" departSpeed="max"><route edges="-E4 E2" /></vehicle><vehicle id="veh462" type="car" depart="560.42" departLane="random" departSpeed="max"><route edges="-E3 E4" /></vehicle><vehicle id="veh903" type="car" depart="562.84" departLane="random" departSpeed="max"><route edges="-E1 E2" /></vehicle><vehicle id="veh559" type="car" depart="563.74" departLane="random" departSpeed="max"><route edges="-E3 E2" /></vehicle><vehicle id="veh616" type="car" depart="565.86" departLane="random" departSpeed="max"><route edges="-E1 E2" /></vehicle><vehicle id="veh675" type="car" depart="570.6" departLane="random" departSpeed="max"><route edges="-E1 E3" /></vehicle><vehicle id="veh115" type="car" depart="572.54" departLane="random" departSpeed="max"><route edges="-E4 E3" /></vehicle><vehicle id="veh519" type="car" depart="577.05" departLane="random" departSpeed="max"><route edges="-E1 E3" /></vehicle><vehicle id="veh975" type="car" depart="584.83" departLane="random" departSpeed="max"><route edges="-E2 E3" /></vehicle><vehicle id="veh123" type="car" depart="587.47" departLane="random" departSpeed="max"><route edges="-E4 E1" /></vehicle><vehicle id="veh52" type="car" depart="589.13" departLane="random" departSpeed="max"><route edges="-E3 E1" /></vehicle><vehicle id="veh18" type="car" depart="596.24" departLane="random" departSpeed="max"><route edges="-E2 E3" /></vehicle><vehicle id="veh278" type="car" depart="596.5" departLane="random" departSpeed="max"><route edges="-E2 E3" /></vehicle><vehicle id="veh68" type="car" depart="598.74" departLane="random" departSpeed="max"><route edges="-E1 E4" /></vehicle><vehicle id="veh677" type="car" depart="603.51" departLane="random" departSpeed="max"><route edges="-E2 E1" /></vehicle><vehicle id="veh347" type="car" depart="606.85" departLane="random" departSpeed="max"><route edges="-E4 E2" /></vehicle><vehicle id="veh75" type="car" depart="610.04" departLane="random" departSpeed="max"><route edges="-E1 E4" /></vehicle><vehicle id="veh583" type="car" depart="611.32" departLane="random" departSpeed="max"><route edges="-E4 E2" /></vehicle><vehicle id="veh206" type="car" depart="613.96" departLane="random" departSpeed="max"><route edges="-E2 E3" /></vehicle><vehicle id="veh44" type="car" depart="615.38" departLane="random" departSpeed="max"><route edges="-E2 E4" /></vehicle><vehicle id="veh71" type="car" depart="616.87" departLane="random" departSpeed="max"><route edges="-E3 E1" /></vehicle><vehicle id="veh142" type="car" depart="618.61" departLane="random" departSpeed="max"><route edges="-E2 E1" /></vehicle><vehicle id="veh565" type="car" depart="620.61" departLane="random" departSpeed="max"><route edges="-E2 E4" /></vehicle><vehicle id="veh483" type="car" depart="621.33" departLane="random" departSpeed="max"><route edges="-E3 E4" /></vehicle><vehicle id="veh399" type="car" depart="622.08" departLane="random" departSpeed="max"><route edges="-E4 E1" /></vehicle><vehicle id="veh80" type="car" depart="622.78" departLane="random" departSpeed="max"><route edges="-E1 E3" /></vehicle><vehicle id="veh121" type="car" depart="625.52" departLane="random" departSpeed="max"><route edges="-E4 E2" /></vehicle><vehicle id="veh140" type="car" depart="630.05" departLane="random" departSpeed="max"><route edges="-E2 E4" /></vehicle><vehicle id="veh70" type="car" depart="630.59" departLane="random" departSpeed="max"><route edges="-E3 E4" /></vehicle><vehicle id="veh542" type="car" depart="632.77" departLane="random" departSpeed="max"><route edges="-E4 E2" /></vehicle><vehicle id="veh147" type="car" depart="641.8" departLane="random" departSpeed="max"><route edges="-E1 E3" /></vehicle><vehicle id="veh332" type="car" depart="642.04" departLane="random" departSpeed="max"><route edges="-E3 E2" /></vehicle><vehicle id="veh547" type="car" depart="643.32" departLane="random" departSpeed="max"><route edges="-E3 E1" /></vehicle><vehicle id="veh192" type="car" depart="645.63" departLane="random" departSpeed="max"><route edges="-E1 E3" /></vehicle><vehicle id="veh790" type="car" depart="646.18" departLane="random" departSpeed="max"><route edges="-E3 E2" /></vehicle><vehicle id="veh203" type="car" depart="648.69" departLane="random" departSpeed="max"><route edges="-E2 E1" /></vehicle><vehicle id="veh451" type="car" depart="649.05" departLane="random" departSpeed="max"><route edges="-E1 E2" /></vehicle><vehicle id="veh898" type="car" depart="653.9" departLane="random" departSpeed="max"><route edges="-E3 E4" /></vehicle><vehicle id="veh180" type="car" depart="654.42" departLane="random" departSpeed="max"><route edges="-E3 E2" /></vehicle><vehicle id="veh377" type="car" depart="655.03" departLane="random" departSpeed="max"><route edges="-E2 E4" /></vehicle><vehicle id="veh754" type="car" depart="655.15" departLane="random" departSpeed="max"><route edges="-E4 E1" /></vehicle><vehicle id="veh719" type="car" depart="658.86" departLane="random" departSpeed="max"><route edges="-E4 E3" /></vehicle><vehicle id="veh833" type="car" depart="662.69" departLane="random" departSpeed="max"><route edges="-E4 E2" /></vehicle><vehicle id="veh248" type="car" depart="662.99" departLane="random" departSpeed="max"><route edges="-E3 E2" /></vehicle><vehicle id="veh990" type="car" depart="663.79" departLane="random" departSpeed="max"><route edges="-E1 E4" /></vehicle><vehicle id="veh307" type="car" depart="664.25" departLane="random" departSpeed="max"><route edges="-E4 E1" /></vehicle><vehicle id="veh884" type="car" depart="666.38" departLane="random" departSpeed="max"><route edges="-E3 E1" /></vehicle><vehicle id="veh329" type="car" depart="671.68" departLane="random" departSpeed="max"><route edges="-E3 E4" /></vehicle><vehicle id="veh1" type="car" depart="673.17" departLane="random" departSpeed="max"><route edges="-E2 E1" /></vehicle><vehicle id="veh345" type="car" depart="674.34" departLane="random" departSpeed="max"><route edges="-E3 E4" /></vehicle><vehicle id="veh886" type="car" depart="679.26" departLane="random" departSpeed="max"><route edges="-E1 E4" /></vehicle><vehicle id="veh162" type="car" depart="695.29" departLane="random" departSpeed="max"><route edges="-E4 E3" /></vehicle><vehicle id="veh119" type="car" depart="699.87" departLane="random" departSpeed="max"><route edges="-E3 E1" /></vehicle><vehicle id="veh182" type="car" depart="700.86" departLane="random" departSpeed="max"><route edges="-E2 E4" /></vehicle><vehicle id="veh764" type="car" depart="702.07" departLane="random" departSpeed="max"><route edges="-E3 E1" /></vehicle><vehicle id="veh627" type="car" depart="702.39" departLane="random" departSpeed="max"><route edges="-E3 E1" /></vehicle><vehicle id="veh828" type="car" depart="707.1" departLane="random" departSpeed="max"><route edges="-E2 E3" /></vehicle><vehicle id="veh566" type="car" depart="718.72" departLane="random" departSpeed="max"><route edges="-E1 E2" /></vehicle><vehicle id="veh437" type="car" depart="725.19" departLane="random" departSpeed="max"><route edges="-E4 E2" /></vehicle><vehicle id="veh181" type="car" depart="731.81" departLane="random" departSpeed="max"><route edges="-E4 E2" /></vehicle><vehicle id="veh260" type="car" depart="732.27" departLane="random" departSpeed="max"><route edges="-E1 E2" /></vehicle><vehicle id="veh871" type="car" depart="735.41" departLane="random" departSpeed="max"><route edges="-E2 E3" /></vehicle><vehicle id="veh799" type="car" depart="742.44" departLane="random" departSpeed="max"><route edges="-E4 E1" /></vehicle><vehicle id="veh879" type="car" depart="745.14" departLane="random" departSpeed="max"><route edges="-E4 E3" /></vehicle><vehicle id="veh271" type="car" depart="750.32" departLane="random" departSpeed="max"><route edges="-E1 E2" /></vehicle><vehicle id="veh102" type="car" depart="756.51" departLane="random" departSpeed="max"><route edges="-E3 E2" /></vehicle><vehicle id="veh106" type="car" depart="757.95" departLane="random" departSpeed="max"><route edges="-E1 E4" /></vehicle><vehicle id="veh505" type="car" depart="759.49" departLane="random" departSpeed="max"><route edges="-E3 E1" /></vehicle><vehicle id="veh597" type="car" depart="760.03" departLane="random" departSpeed="max"><route edges="-E2 E4" /></vehicle><vehicle id="veh869" type="car" depart="760.11" departLane="random" departSpeed="max"><route edges="-E1 E3" /></vehicle><vehicle id="veh246" type="car" depart="760.63" departLane="random" departSpeed="max"><route edges="-E2 E3" /></vehicle><vehicle id="veh934" type="car" depart="763.41" departLane="random" departSpeed="max"><route edges="-E1 E3" /></vehicle><vehicle id="veh497" type="car" depart="767.66" departLane="random" departSpeed="max"><route edges="-E3 E1" /></vehicle><vehicle id="veh178" type="car" depart="771.58" departLane="random" departSpeed="max"><route edges="-E4 E1" /></vehicle><vehicle id="veh779" type="car" depart="771.87" departLane="random" departSpeed="max"><route edges="-E1 E3" /></vehicle><vehicle id="veh409" type="car" depart="771.96" departLane="random" departSpeed="max"><route edges="-E4 E2" /></vehicle><vehicle id="veh286" type="car" depart="772.76" departLane="random" departSpeed="max"><route edges="-E1 E2" /></vehicle><vehicle id="veh446" type="car" depart="772.91" departLane="random" departSpeed="max"><route edges="-E1 E4" /></vehicle><vehicle id="veh808" type="car" depart="781.68" departLane="random" departSpeed="max"><route edges="-E3 E1" /></vehicle><vehicle id="veh863" type="car" depart="782.35" departLane="random" departSpeed="max"><route edges="-E2 E4" /></vehicle><vehicle id="veh523" type="car" depart="784.42" departLane="random" departSpeed="max"><route edges="-E1 E2" /></vehicle><vehicle id="veh169" type="car" depart="785.44" departLane="random" departSpeed="max"><route edges="-E2 E3" /></vehicle><vehicle id="veh528" type="car" depart="787.37" departLane="random" departSpeed="max"><route edges="-E2 E1" /></vehicle><vehicle id="veh257" type="car" depart="793.38" departLane="random" departSpeed="max"><route edges="-E1 E3" /></vehicle><vehicle id="veh705" type="car" depart="795.25" departLane="random" departSpeed="max"><route edges="-E3 E4" /></vehicle><vehicle id="veh763" type="car" depart="802.44" departLane="random" departSpeed="max"><route edges="-E4 E1" /></vehicle><vehicle id="veh351" type="car" depart="808.18" departLane="random" departSpeed="max"><route edges="-E1 E3" /></vehicle><vehicle id="veh730" type="car" depart="808.97" departLane="random" departSpeed="max"><route edges="-E1 E2" /></vehicle><vehicle id="veh588" type="car" depart="811.09" departLane="random" departSpeed="max"><route edges="-E4 E3" /></vehicle><vehicle id="veh831" type="car" depart="814.12" departLane="random" departSpeed="max"><route edges="-E4 E3" /></vehicle><vehicle id="veh229" type="car" depart="820.32" departLane="random" departSpeed="max"><route edges="-E2 E1" /></vehicle><vehicle id="veh704" type="car" depart="821.77" departLane="random" departSpeed="max"><route edges="-E2 E1" /></vehicle><vehicle id="veh856" type="car" depart="827.14" departLane="random" departSpeed="max"><route edges="-E4 E1" /></vehicle><vehicle id="veh288" type="car" depart="830.11" departLane="random" departSpeed="max"><route edges="-E1 E3" /></vehicle><vehicle id="veh859" type="car" depart="833.91" departLane="random" departSpeed="max"><route edges="-E4 E3" /></vehicle><vehicle id="veh956" type="car" depart="835.05" departLane="random" departSpeed="max"><route edges="-E1 E2" /></vehicle><vehicle id="veh951" type="car" depart="835.95" departLane="random" departSpeed="max"><route edges="-E2 E4" /></vehicle><vehicle id="veh504" type="car" depart="840.25" departLane="random" departSpeed="max"><route edges="-E2 E3" /></vehicle><vehicle id="veh472" type="car" depart="846.74" departLane="random" departSpeed="max"><route edges="-E4 E3" /></vehicle><vehicle id="veh775" type="car" depart="852.9" departLane="random" departSpeed="max"><route edges="-E4 E2" /></vehicle><vehicle id="veh662" type="car" depart="854.32" departLane="random" departSpeed="max"><route edges="-E1 E4" /></vehicle><vehicle id="veh922" type="car" depart="854.49" departLane="random" departSpeed="max"><route edges="-E1 E3" /></vehicle><vehicle id="veh294" type="car" depart="858.04" departLane="random" departSpeed="max"><route edges="-E3 E4" /></vehicle><vehicle id="veh233" type="car" depart="866.18" departLane="random" departSpeed="max"><route edges="-E1 E3" /></vehicle><vehicle id="veh397" type="car" depart="868.22" departLane="random" departSpeed="max"><route edges="-E1 E2" /></vehicle><vehicle id="veh832" type="car" depart="869.06" departLane="random" departSpeed="max"><route edges="-E2 E1" /></vehicle><vehicle id="veh42" type="car" depart="872.65" departLane="random" departSpeed="max"><route edges="-E2 E1" /></vehicle><vehicle id="veh373" type="car" depart="875.47" departLane="random" departSpeed="max"><route edges="-E4 E3" /></vehicle><vehicle id="veh713" type="car" depart="875.81" departLane="random" departSpeed="max"><route edges="-E3 E1" /></vehicle><vehicle id="veh488" type="car" depart="876.27" departLane="random" departSpeed="max"><route edges="-E4 E2" /></vehicle><vehicle id="veh267" type="car" depart="885.05" departLane="random" departSpeed="max"><route edges="-E4 E1" /></vehicle><vehicle id="veh318" type="car" depart="887.69" departLane="random" departSpeed="max"><route edges="-E4 E2" /></vehicle><vehicle id="veh607" type="car" depart="889.37" departLane="random" departSpeed="max"><route edges="-E4 E1" /></vehicle><vehicle id="veh850" type="car" depart="891.1" departLane="random" departSpeed="max"><route edges="-E3 E4" /></vehicle><vehicle id="veh10" type="car" depart="891.37" departLane="random" departSpeed="max"><route edges="-E1 E3" /></vehicle><vehicle id="veh930" type="car" depart="896.33" departLane="random" departSpeed="max"><route edges="-E1 E2" /></vehicle><vehicle id="veh712" type="car" depart="896.4" departLane="random" departSpeed="max"><route edges="-E3 E4" /></vehicle><vehicle id="veh419" type="car" depart="896.8" departLane="random" departSpeed="max"><route edges="-E1 E4" /></vehicle><vehicle id="veh506" type="car" depart="899.65" departLane="random" departSpeed="max"><route edges="-E3 E4" /></vehicle><vehicle id="veh276" type="car" depart="902.62" departLane="random" departSpeed="max"><route edges="-E2 E3" /></vehicle><vehicle id="veh984" type="car" depart="903.77" departLane="random" departSpeed="max"><route edges="-E1 E4" /></vehicle><vehicle id="veh430" type="car" depart="907.5" departLane="random" departSpeed="max"><route edges="-E2 E1" /></vehicle><vehicle id="veh490" type="car" depart="909.88" departLane="random" departSpeed="max"><route edges="-E4 E2" /></vehicle><vehicle id="veh692" type="car" depart="913.46" departLane="random" departSpeed="max"><route edges="-E2 E3" /></vehicle><vehicle id="veh729" type="car" depart="919.98" departLane="random" departSpeed="max"><route edges="-E4 E3" /></vehicle><vehicle id="veh534" type="car" depart="922.03" departLane="random" departSpeed="max"><route edges="-E2 E1" /></vehicle><vehicle id="veh973" type="car" depart="929.48" departLane="random" departSpeed="max"><route edges="-E3 E2" /></vehicle><vehicle id="veh328" type="car" depart="936.67" departLane="random" departSpeed="max"><route edges="-E3 E2" /></vehicle><vehicle id="veh741" type="car" depart="938.64" departLane="random" departSpeed="max"><route edges="-E2 E1" /></vehicle><vehicle id="veh11" type="car" depart="939.81" departLane="random" departSpeed="max"><route edges="-E3 E4" /></vehicle><vehicle id="veh426" type="car" depart="947.3" departLane="random" departSpeed="max"><route edges="-E3 E4" /></vehicle><vehicle id="veh385" type="car" depart="969.77" departLane="random" departSpeed="max"><route edges="-E1 E2" /></vehicle><vehicle id="veh31" type="car" depart="972.85" departLane="random" departSpeed="max"><route edges="-E1 E3" /></vehicle><vehicle id="veh259" type="car" depart="973.23" departLane="random" departSpeed="max"><route edges="-E4 E2" /></vehicle><vehicle id="veh40" type="car" depart="973.89" departLane="random" departSpeed="max"><route edges="-E2 E1" /></vehicle><vehicle id="veh812" type="car" depart="976.22" departLane="random" departSpeed="max"><route edges="-E3 E2" /></vehicle><vehicle id="veh197" type="car" d