<?xml version="1.0" encoding="UTF-8"?>

<routes xmlns:xsi="http://www.w3.org/2001/XMLSchema-instance" xsi:noNamespaceSchemaLocation="http://sumo.dlr.de/xsd/routes_file.xsd">
    <vType id="car" accel="2.6" decel="4.5" maxSpeed="13.89" length="5.0"/>
    <!-- Route definitions -->
    <route id="r_0" edges="E0 E4"/>
    <route id="r_1" edges="E0 E1"/>
    <route id="r_2" edges="E0 E3"/>
    <route id="r_3" edges="E0 E2"/>
    <route id="r_4" edges="-E2 E3"/>
    <route id="r_5" edges="-E2 E1"/>
    <route id="r_6" edges="-E2 E4"/>
    <route id="r_7" edges="-E2 -E0"/>
    <route id="r_8" edges="-E3 E1"/>
    <route id="r_9" edges="-E3 E4"/>
    <route id="r_10" edges="-E3 -E0"/>
    <route id="r_11" edges="-E3 E2"/>
    <route id="r_12" edges="-E1 E4"/>
    <route id="r_13" edges="-E1 -E0"/>
    <route id="r_14" edges="-E1 E2"/>
    <route id="r_15" edges="-E1 E3"/>
    <route id="r_16" edges="-E4 -E0"/>
    <route id="r_17" edges="-E4 E2"/>
    <route id="r_18" edges="-E4 E3"/>
    <route id="r_19" edges="-E4 E1"/>

    <!-- Flows to generate randomly dense traffic -->
<flow id="flow_0" type="car" route="r_0" begin="0" end="3600" period="0.4"/>
<flow id="flow_1" type="car" route="r_1" begin="0" end="3600" period="1.2"/>
<flow id="flow_2" type="car" route="r_2" begin="0" end="3600" period="0.6"/>
<flow id="flow_3" type="car" route="r_3" begin="0" end="3600" period="2.5"/>
<flow id="flow_4" type="car" route="r_4" begin="0" end="3600" period="0.9"/>
<flow id="flow_5" type="car" route="r_5" begin="0" end="3600" period="1.8"/>
<flow id="flow_6" type="car" route="r_6" begin="0" end="3600" period="0.3"/>
<flow id="flow_7" type="car" route="r_7" begin="0" end="3600" period="2.0"/>
<flow id="flow_8" type="car" route="r_8" begin="0" end="3600" period="0.7"/>
<flow id="flow_9" type="car" route="r_9" begin="0" end="3600" period="1.0"/>
<flow id="flow_10" type="car" route="r_10" begin="0" end="3600" period="0.2"/>
<flow id="flow_11" type="car" route="r_11" begin="0" end="3600" period="1.5"/>
<flow id="flow_12" type="car" route="r_12" begin="0" end="3600" period="0.5"/>
<flow id="flow_13" type="car" route="r_13" begin="0" end="3600" period="2.8"/>
<flow id="flow_14" type="car" route="r_14" begin="0" end="3600" period="0.6"/>
<flow id="flow_15" type="car" route="r_15" begin="0" end="3600" period="1.3"/>
<flow id="flow_16" type="car" route="r_16" begin="0" end="3600" period="0.8"/>
<flow id="flow_17" type="car" route="r_17" begin="0" end="3600" period="0.3"/>
<flow id="flow_18" type="car" route="r_18" begin="0" end="3600" period="2.2"/>
<flow id="flow_19" type="car" route="r_19" begin="0" end="3600" period="0.4"/>

</routes>
