<?xml version="1.0" encoding="UTF-8"?>

<!-- generated on 2025-05-23 17:11:49 by Eclipse SUMO netedit Version 1.23.1
<neteditConfiguration xmlns:xsi="http://www.w3.org/2001/XMLSchema-instance" xsi:noNamespaceSchemaLocation="http://sumo.dlr.de/xsd/neteditConfiguration.xsd">

    <input>
        <sumo-net-file value="D:\RL Result-20250514T050826Z-1-001\RL Result\Code\5\beta.net.xml"/>
    </input>

    <output>
        <output-file value="D:\RL Result-20250514T050826Z-1-001\RL Result\Code\5\beta.net.xml"/>
    </output>

    <processing>
        <geometry.min-radius.fix.railways value="false"/>
        <geometry.avoid-overlap value="false"/>
        <geometry.max-grade.fix value="false"/>
        <offset.disable-normalization value="true"/>
        <lefthand value="0"/>
    </processing>

    <junctions>
        <no-turnarounds value="true"/>
        <junctions.corner-detail value="5"/>
        <junctions.limit-turn-speed value="5.50"/>
        <rectangular-lane-cut value="0"/>
    </junctions>

    <pedestrian>
        <walkingareas value="0"/>
    </pedestrian>

</neteditConfiguration>
-->

<net version="1.20" junctionCornerDetail="5" limitTurnSpeed="5.50" avoidOverlap="0" xmlns:xsi="http://www.w3.org/2001/XMLSchema-instance" xsi:noNamespaceSchemaLocation="http://sumo.dlr.de/xsd/net_file.xsd">

    <location netOffset="0.00,0.00" convBoundary="-93.57,-115.17,205.36,100.43" origBoundary="-10000000000.00,-10000000000.00,10000000000.00,10000000000.00" projParameter="!"/>

    <edge id=":J1_0" function="internal">
        <lane id=":J1_0_0" index="0" speed="7.72" length="13.05" shape="37.98,9.85 37.32,7.31 35.41,5.49 32.25,4.39 27.83,4.03"/>
    </edge>
    <edge id=":J1_1" function="internal">
        <lane id=":J1_1_0" index="0" speed="13.89" length="30.42" shape="37.98,9.85 37.67,1.17 36.72,-4.73 34.80,-10.46 31.60,-18.58"/>
        <lane id=":J1_1_1" index="1" speed="13.89" length="30.42" shape="41.18,9.82 40.85,0.84 39.86,-5.34 37.88,-11.33 34.59,-19.74"/>
        <lane id=":J1_1_2" index="2" speed="13.89" length="30.42" shape="41.18,9.82 41.32,0.66 41.36,-5.92 40.40,-12.31 37.57,-20.90"/>
    </edge>
    <edge id=":J1_4" function="internal">
        <lane id=":J1_4_0" index="0" speed="13.89" length="12.81" shape="41.18,9.82 42.39,1.65 44.18,-2.52"/>
    </edge>
    <edge id=":J1_5" function="internal">
        <lane id=":J1_5_0" index="0" speed="12.38" length="2.55" shape="44.38,9.79 45.01,7.32"/>
    </edge>
    <edge id=":J1_30" function="internal">
        <lane id=":J1_30_0" index="0" speed="13.89" length="29.64" shape="44.18,-2.52 46.16,-7.11 52.49,-16.47 61.39,-26.42"/>
    </edge>
    <edge id=":J1_31" function="internal">
        <lane id=":J1_31_0" index="0" speed="12.38" length="33.32" shape="45.01,7.32 46.10,3.08 51.40,-1.69 60.28,-4.52 72.74,-5.40"/>
    </edge>
    <edge id=":J1_6" function="internal">
        <lane id=":J1_6_0" index="0" speed="9.52" length="20.76" shape="72.68,4.19 64.48,4.50 58.63,5.51 55.13,7.25 53.98,9.70"/>
    </edge>
    <edge id=":J1_7" function="internal">
        <lane id=":J1_7_0" index="0" speed="13.89" length="44.87" shape="72.68,4.19 27.83,4.03"/>
        <lane id=":J1_7_1" index="1" speed="13.89" length="44.87" shape="72.70,1.00 27.83,0.83"/>
        <lane id=":J1_7_2" index="2" speed="13.89" length="44.87" shape="72.72,-2.20 27.83,-2.37"/>
    </edge>
    <edge id=":J1_10" function="internal">
        <lane id=":J1_10_0" index="0" speed="13.89" length="8.95" shape="72.72,-2.20 63.80,-2.94"/>
    </edge>
    <edge id=":J1_11" function="internal">
        <lane id=":J1_11_0" index="0" speed="9.33" length="2.94" shape="72.72,-2.20 69.87,-2.94"/>
    </edge>
    <edge id=":J1_32" function="internal">
        <lane id=":J1_32_0" index="0" speed="13.89" length="35.54" shape="63.80,-2.94 58.56,-3.37 47.48,-6.68 39.49,-12.14 34.59,-19.74"/>
    </edge>
    <edge id=":J1_33" function="internal">
        <lane id=":J1_33_0" index="0" speed="9.33" length="28.39" shape="69.87,-2.94 64.43,-4.35 59.75,-9.70 59.30,-16.79 63.66,-24.16"/>
    </edge>
    <edge id=":J1_12" function="internal">
        <lane id=":J1_12_0" index="0" speed="5.48" length="9.71" shape="70.47,-17.39 68.55,-14.97 68.29,-13.23 69.70,-12.17 72.78,-11.80"/>
    </edge>
    <edge id=":J1_13" function="internal">
        <lane id=":J1_13_0" index="0" speed="13.89" length="34.89" shape="68.20,-19.65 60.54,-11.20 55.08,-3.48 51.83,3.49 50.78,9.73"/>
    </edge>
    <edge id=":J1_14" function="internal">
        <lane id=":J1_14_0" index="0" speed="13.89" length="46.40" shape="68.20,-19.65 58.05,-10.69 47.93,-4.29 37.86,-0.45 27.83,0.83"/>
        <lane id=":J1_14_1" index="1" speed="13.89" length="43.88" shape="65.93,-21.91 56.27,-13.36 46.70,-7.25 37.22,-3.59 27.83,-2.37"/>
    </edge>
    <edge id=":J1_16" function="internal">
        <lane id=":J1_16_0" index="0" speed="10.87" length="35.70" shape="65.93,-21.91 57.61,-14.96 49.72,-11.69 42.84,-13.28 37.57,-20.90"/>
    </edge>
    <edge id=":J1_17" function="internal">
        <lane id=":J1_17_0" index="0" speed="7.37" length="15.68" shape="46.52,-24.37 48.18,-22.38 50.84,-22.43 54.49,-24.53 59.12,-28.67"/>
    </edge>
    <edge id=":J1_18" function="internal">
        <lane id=":J1_18_0" index="0" speed="13.89" length="32.67" shape="46.52,-24.37 50.43,-17.52 56.11,-12.61 63.55,-9.64 72.76,-8.60"/>
        <lane id=":J1_18_1" index="1" speed="13.89" length="36.51" shape="43.54,-23.21 47.93,-15.47 54.26,-9.92 62.53,-6.57 72.74,-5.40"/>
    </edge>
    <edge id=":J1_20" function="internal">
        <lane id=":J1_20_0" index="0" speed="13.89" length="33.82" shape="43.54,-23.21 47.44,-14.28 50.74,-7.13 53.05,0.20 53.98,9.70"/>
        <lane id=":J1_20_1" index="1" speed="13.89" length="33.82" shape="40.55,-22.05 44.42,-13.30 47.65,-6.54 49.88,0.41 50.78,9.73"/>
        <lane id=":J1_20_2" index="2" speed="13.89" length="33.82" shape="40.55,-22.05 43.92,-13.29 46.05,-6.53 47.18,0.43 47.58,9.76"/>
    </edge>
    <edge id=":J1_23" function="internal">
        <lane id=":J1_23_0" index="0" speed="10.02" length="7.09" shape="40.55,-22.05 42.10,-15.13"/>
    </edge>
    <edge id=":J1_34" function="internal">
        <lane id=":J1_34_0" index="0" speed="10.02" length="22.20" shape="42.10,-15.13 42.38,-13.86 40.84,-7.66 35.97,-3.74 27.83,-2.37"/>
    </edge>
    <edge id=":J1_24" function="internal">
        <lane id=":J1_24_0" index="0" speed="6.01" length="9.67" shape="27.83,-11.97 30.44,-12.38 31.94,-13.62 32.33,-15.69 31.60,-18.58"/>
    </edge>
    <edge id=":J1_25" function="internal">
        <lane id=":J1_25_0" index="0" speed="13.89" length="37.51" shape="27.83,-11.97 37.13,-12.87 45.82,-15.58 53.91,-20.10 61.39,-26.42"/>
    </edge>
    <edge id=":J1_26" function="internal">
        <lane id=":J1_26_0" index="0" speed="13.89" length="44.93" shape="27.83,-11.97 72.78,-11.80"/>
        <lane id=":J1_26_1" index="1" speed="13.89" length="44.93" shape="27.83,-8.77 72.76,-8.60"/>
        <lane id=":J1_26_2" index="2" speed="13.89" length="44.93" shape="27.83,-5.57 72.74,-5.40"/>
    </edge>
    <edge id=":J1_29" function="internal">
        <lane id=":J1_29_0" index="0" speed="11.15" length="6.57" shape="27.83,-5.57 34.36,-4.84"/>
    </edge>
    <edge id=":J1_35" function="internal">
        <lane id=":J1_35_0" index="0" speed="11.15" length="21.76" shape="34.36,-4.84 36.42,-4.61 42.57,-1.74 46.29,3.06 47.58,9.76"/>
    </edge>

    <edge id="-E0" from="J1" to="J0" priority="-1">
        <lane id="-E0_0" index="0" speed="13.89" length="121.40" shape="27.83,4.03 -93.57,4.03"/>
        <lane id="-E0_1" index="1" speed="13.89" length="121.40" shape="27.83,0.83 -93.57,0.83"/>
        <lane id="-E0_2" index="2" speed="13.89" length="121.40" shape="27.83,-2.37 -93.57,-2.37"/>
    </edge>
    <edge id="-E1" from="J2" to="J1" priority="-1">
        <lane id="-E1_0" index="0" speed="13.89" length="132.63" shape="205.31,5.01 72.68,4.19"/>
        <lane id="-E1_1" index="1" speed="13.89" length="132.63" shape="205.33,1.81 72.70,1.00"/>
        <lane id="-E1_2" index="2" speed="13.89" length="132.63" shape="205.35,-1.39 72.72,-2.20"/>
    </edge>
    <edge id="-E2" from="J3" to="J1" priority="-1">
        <lane id="-E2_0" index="0" speed="13.89" length="100.50" shape="10.18,-118.06 46.52,-24.37"/>
        <lane id="-E2_1" index="1" speed="13.89" length="100.50" shape="7.20,-116.91 43.54,-23.21"/>
        <lane id="-E2_2" index="2" speed="13.89" length="100.50" shape="4.21,-115.75 40.55,-22.05"/>
    </edge>
    <edge id="-E3" from="J4" to="J1" priority="-1">
        <lane id="-E3_0" index="0" speed="13.89" length="124.42" shape="158.18,-105.64 70.47,-17.39"/>
        <lane id="-E3_1" index="1" speed="13.89" length="124.42" shape="155.91,-107.90 68.20,-19.65"/>
        <lane id="-E3_2" index="2" speed="13.89" length="124.42" shape="153.64,-110.15 65.93,-21.91"/>
    </edge>
    <edge id="-E4" from="J5" to="J1" priority="-1">
        <lane id="-E4_0" index="0" speed="13.89" length="90.66" shape="38.82,100.50 37.98,9.85"/>
        <lane id="-E4_1" index="1" speed="13.89" length="90.66" shape="42.02,100.47 41.18,9.82"/>
        <lane id="-E4_2" index="2" speed="13.89" length="90.66" shape="45.22,100.44 44.38,9.79"/>
    </edge>
    <edge id="E0" from="J0" to="J1" priority="-1">
        <lane id="E0_0" index="0" speed="13.89" length="121.40" shape="-93.57,-11.97 27.83,-11.97"/>
        <lane id="E0_1" index="1" speed="13.89" length="121.40" shape="-93.57,-8.77 27.83,-8.77"/>
        <lane id="E0_2" index="2" speed="13.89" length="121.40" shape="-93.57,-5.57 27.83,-5.57"/>
    </edge>
    <edge id="E1" from="J1" to="J2" priority="-1">
        <lane id="E1_0" index="0" speed="13.89" length="132.63" shape="72.78,-11.80 205.41,-10.99"/>
        <lane id="E1_1" index="1" speed="13.89" length="132.63" shape="72.76,-8.60 205.39,-7.79"/>
        <lane id="E1_2" index="2" speed="13.89" length="132.63" shape="72.74,-5.40 205.37,-4.59"/>
    </edge>
    <edge id="E2" from="J1" to="J3" priority="-1">
        <lane id="E2_0" index="0" speed="13.89" length="100.50" shape="31.60,-18.58 -4.74,-112.28"/>
        <lane id="E2_1" index="1" speed="13.89" length="100.50" shape="34.59,-19.74 -1.76,-113.43"/>
        <lane id="E2_2" index="2" speed="13.89" length="100.50" shape="37.57,-20.90 1.23,-114.59"/>
    </edge>
    <edge id="E3" from="J1" to="J4" priority="-1">
        <lane id="E3_0" index="0" speed="13.89" length="124.42" shape="59.12,-28.67 146.84,-116.92"/>
        <lane id="E3_1" index="1" speed="13.89" length="124.42" shape="61.39,-26.42 149.11,-114.66"/>
        <lane id="E3_2" index="2" speed="13.89" length="124.42" shape="63.66,-24.16 151.38,-112.41"/>
    </edge>
    <edge id="E4" from="J1" to="J5" priority="-1">
        <lane id="E4_0" index="0" speed="13.89" length="90.66" shape="53.98,9.70 54.82,100.36"/>
        <lane id="E4_1" index="1" speed="13.89" length="90.66" shape="50.78,9.73 51.62,100.39"/>
        <lane id="E4_2" index="2" speed="13.89" length="90.66" shape="47.58,9.76 48.42,100.42"/>
    </edge>

    <tlLogic id="J1" type="static" programID="0" offset="0">
        <phase duration="35" state="GrrrrrGGGGggrrrrrGrrrrrrGGGGGg"/>
        <phase duration="3"  state="GrrrrrGyyyggrrrrrGrrrrrrGyyyyg"/>
        <phase duration="20" state="GrrrrrGrrrGGrrrrrGrrrrrrGrrrrG"/>
        <phase duration="3"  state="GrrrrrGrrryyrrrrrGrrrrrrGrrrry"/>
        <phase duration="1"  state="GrrrrrGrrrrrrrrrrGrrrrrrGrrrrr"/>
        <phase duration="20" state="GGGGggGrrrrrrrrrrGGGGGGgGrrrrr"/>
        <phase duration="3"  state="GyyyggGrrrrrrrrrrGyyyyygGrrrrr"/>
        <phase duration="6"  state="GrrrGGGrrrrrrrrrrGrrrrrGGrrrrr"/>
        <phase duration="3"  state="GrrryyGrrrrrrrrrrGrrrrryGrrrrr"/>
        <phase duration="1"  state="GrrrrrGrrrrrrrrrrGrrrrrrGrrrrr"/>
        <phase duration="20" state="GrrrrrGrrrrrGGGGGGrrrrrrGrrrrr"/>
        <phase duration="3"  state="GrrrrrGrrrrryyyyyGrrrrrrGrrrrr"/>
        <phase duration="1"  state="GrrrrrGrrrrrrrrrrGrrrrrrGrrrrr"/>
    </tlLogic>

    <junction id="J0" type="dead_end" x="-93.57" y="-3.97" incLanes="-E0_0 -E0_1 -E0_2" intLanes="" shape="-93.57,-3.97 -93.57,5.63 -93.57,-3.97"/>
    <junction id="J1" type="traffic_light" x="45.85" y="-3.97" incLanes="-E4_0 -E4_1 -E4_2 -E1_0 -E1_1 -E1_2 -E3_0 -E3_1 -E3_2 -E2_0 -E2_1 -E2_2 E0_0 E0_1 E0_2" intLanes=":J1_0_0 :J1_1_0 :J1_1_1 :J1_1_2 :J1_30_0 :J1_31_0 :J1_6_0 :J1_7_0 :J1_7_1 :J1_7_2 :J1_32_0 :J1_33_0 :J1_12_0 :J1_13_0 :J1_14_0 :J1_14_1 :J1_16_0 :J1_17_0 :J1_18_0 :J1_18_1 :J1_20_0 :J1_20_1 :J1_20_2 :J1_34_0 :J1_24_0 :J1_25_0 :J1_26_0 :J1_26_1 :J1_26_2 :J1_35_0" shape="36.38,9.87 55.58,9.69 57.46,7.48 59.83,6.72 63.16,6.18 67.44,5.87 72.67,5.79 72.79,-13.40 70.88,-13.73 70.49,-14.13 70.49,-14.69 70.86,-15.40 71.61,-16.27 57.99,-29.80 55.34,-27.28 53.09,-25.45 51.23,-24.30 49.76,-23.83 48.69,-24.05 48.01,-24.95 30.11,-18.00 30.62,-15.54 30.40,-14.68 29.86,-14.06 29.00,-13.69 27.83,-13.57 27.83,5.63 30.43,5.75 32.56,6.10 34.22,6.69 35.41,7.51 36.13,8.57">
        <request index="0"  response="000000000000000000001110000000" foes="000000000000000000001110000000" cont="0"/>
        <request index="1"  response="111111000000000000011110000000" foes="111111100000011100011110000000" cont="0"/>
        <request index="2"  response="111111000000000000011110000000" foes="111111100000011100011110000000" cont="0"/>
        <request index="3"  response="111111000000000000011110000000" foes="111111100000011100011110000000" cont="0"/>
        <request index="4"  response="111110011111000000011110000000" foes="111110011111011100011110000000" cont="1"/>
        <request index="5"  response="111100011111000010111110000000" foes="111100011111000010111110000000" cont="1"/>
        <request index="6"  response="000000000000000000000000000000" foes="000000011100000000000000000000" cont="0"/>
        <request index="7"  response="000000100000000000000000110000" foes="100000111100001110000000111111" cont="0"/>
        <request index="8"  response="000000100000000000000000110000" foes="100000111100001110000000111111" cont="0"/>
        <request index="9"  response="000000100000000000000000110000" foes="100000111100001110000000111111" cont="0"/>
        <request index="10" response="011110100000000000000000110000" foes="011110111100001110000000111110" cont="1"/>
        <request index="11" response="011100000000100000000000100000" foes="011100000011011110000000100000" cont="1"/>
        <request index="12" response="011100000000000000000000000000" foes="011100000000000000000000000000" cont="0"/>
        <request index="13" response="011100011100000000111110100000" foes="011100011111000000111110100000" cont="0"/>
        <request index="14" response="111100111100000000111110011110" foes="111100111111000000111110011110" cont="0"/>
        <request index="15" response="111100111100000000111110011110" foes="111100111111000000111110011110" cont="0"/>
        <request index="16" response="000010111100000000100000011110" foes="000010111111000000100000011110" cont="0"/>
        <request index="17" response="000000000000000000000000000000" foes="000000000000000000000000000000" cont="0"/>
        <request index="18" response="011110000000011110100000000000" foes="011110000000011110100000110000" cont="0"/>
        <request index="19" response="011110000000011110100000000000" foes="011110000000011110100000110000" cont="0"/>
        <request index="20" response="111110000000000000011111000000" foes="111110000000011110011111110000" cont="0"/>
        <request index="21" response="111110000000000000011111000000" foes="111110000000011110011111110000" cont="0"/>
        <request index="22" response="111110000000000000011111000000" foes="111110000000011110011111110000" cont="0"/>
        <request index="23" response="111110000000011100011110001110" foes="111110000000011100011110001110" cont="1"/>
        <request index="24" response="000000000000000000000000000000" foes="000000000000000000000000001110" cont="0"/>
        <request index="25" response="000000100000000000000000010000" foes="000000111111010000010000011110" cont="0"/>
        <request index="26" response="000000100000000000000000110000" foes="000000111111001111110000111110" cont="0"/>
        <request index="27" response="000000100000000000000000110000" foes="000000111111001111110000111110" cont="0"/>
        <request index="28" response="000000100000000000000000110000" foes="000000111111001111110000111110" cont="0"/>
        <request index="29" response="000000100000000000001110110000" foes="000000111100001100001110111110" cont="1"/>
    </junction>
    <junction id="J2" type="dead_end" x="205.36" y="-2.99" incLanes="E1_0 E1_1 E1_2" intLanes="" shape="205.36,-2.99 205.42,-12.59 205.36,-2.99"/>
    <junction id="J3" type="dead_end" x="2.72" y="-115.17" incLanes="E2_0 E2_1 E2_2" intLanes="" shape="2.72,-115.17 -6.23,-111.70 2.72,-115.17"/>
    <junction id="J4" type="dead_end" x="152.51" y="-111.28" incLanes="E3_0 E3_1 E3_2" intLanes="" shape="152.51,-111.28 145.70,-118.05 152.51,-111.28"/>
    <junction id="J5" type="dead_end" x="46.82" y="100.43" incLanes="E4_0 E4_1 E4_2" intLanes="" shape="46.82,100.43 56.42,100.34 46.82,100.43"/>

    <junction id=":J1_30_0" type="internal" x="44.18" y="-2.52" incLanes=":J1_4_0 -E2_0 -E2_1 -E2_2" intLanes=":J1_7_0 :J1_7_1 :J1_7_2 :J1_10_0 :J1_11_0 :J1_14_0 :J1_14_1 :J1_16_0 :J1_17_0 :J1_18_0 :J1_18_1 :J1_20_0 :J1_20_1 :J1_20_2 :J1_25_0 :J1_26_0 :J1_26_1 :J1_26_2 :J1_29_0"/>
    <junction id=":J1_31_0" type="internal" x="45.01" y="7.32" incLanes=":J1_5_0 -E2_0 -E2_1 -E2_2" intLanes=":J1_7_0 :J1_7_1 :J1_7_2 :J1_10_0 :J1_11_0 :J1_12_0 :J1_13_0 :J1_18_0 :J1_18_1 :J1_20_0 :J1_20_1 :J1_20_2 :J1_26_0 :J1_26_1 :J1_26_2 :J1_29_0"/>
    <junction id=":J1_32_0" type="internal" x="63.80" y="-2.94" incLanes=":J1_10_0 E0_0 E0_1 E0_2" intLanes=":J1_1_0 :J1_1_1 :J1_1_2 :J1_4_0 :J1_5_0 :J1_13_0 :J1_14_0 :J1_14_1 :J1_16_0 :J1_20_0 :J1_20_1 :J1_20_2 :J1_23_0 :J1_24_0 :J1_25_0 :J1_26_0 :J1_26_1 :J1_26_2"/>
    <junction id=":J1_33_0" type="internal" x="69.87" y="-2.94" incLanes=":J1_11_0 E0_0 E0_1 E0_2" intLanes=":J1_4_0 :J1_5_0 :J1_13_0 :J1_14_0 :J1_14_1 :J1_16_0 :J1_17_0 :J1_18_0 :J1_18_1 :J1_25_0 :J1_26_0 :J1_26_1 :J1_26_2"/>
    <junction id=":J1_34_0" type="internal" x="42.10" y="-15.13" incLanes=":J1_23_0 -E4_0 -E4_1" intLanes=":J1_0_0 :J1_1_0 :J1_1_1 :J1_1_2 :J1_7_0 :J1_7_1 :J1_7_2 :J1_10_0 :J1_14_0 :J1_14_1 :J1_16_0 :J1_25_0 :J1_26_0 :J1_26_1 :J1_26_2 :J1_29_0"/>
    <junction id=":J1_35_0" type="internal" x="34.36" y="-4.84" incLanes=":J1_29_0 -E1_0 -E1_1 -E1_2" intLanes=":J1_1_0 :J1_1_1 :J1_1_2 :J1_4_0 :J1_5_0 :J1_6_0 :J1_7_0 :J1_7_1 :J1_7_2 :J1_13_0 :J1_14_0 :J1_14_1 :J1_20_0 :J1_20_1 :J1_20_2 :J1_23_0"/>

    <connection from="-E1" to="E4" fromLane="0" toLane="0" via=":J1_6_0" tl="J1" linkIndex="6" dir="r" state="O"/>
    <connection from="-E1" to="-E0" fromLane="0" toLane="0" via=":J1_7_0" tl="J1" linkIndex="7" dir="s" state="O"/>
    <connection from="-E1" to="-E0" fromLane="1" toLane="1" via=":J1_7_1" tl="J1" linkIndex="8" dir="s" state="O"/>
    <connection from="-E1" to="-E0" fromLane="2" toLane="2" via=":J1_7_2" tl="J1" linkIndex="9" dir="s" state="O"/>
    <connection from="-E1" to="E2" fromLane="2" toLane="1" via=":J1_10_0" tl="J1" linkIndex="10" dir="L" state="o"/>
    <connection from="-E1" to="E3" fromLane="2" toLane="2" via=":J1_11_0" tl="J1" linkIndex="11" dir="l" state="o"/>
    <connection from="-E2" to="E3" fromLane="0" toLane="0" via=":J1_17_0" tl="J1" linkIndex="17" dir="r" state="O"/>
    <connection from="-E2" to="E1" fromLane="0" toLane="1" via=":J1_18_0" tl="J1" linkIndex="18" dir="R" state="o"/>
    <connection from="-E2" to="E1" fromLane="1" toLane="2" via=":J1_18_1" tl="J1" linkIndex="19" dir="R" state="o"/>
    <connection from="-E2" to="E4" fromLane="1" toLane="0" via=":J1_20_0" tl="J1" linkIndex="20" dir="s" state="o"/>
    <connection from="-E2" to="E4" fromLane="2" toLane="1" via=":J1_20_1" tl="J1" linkIndex="21" dir="s" state="o"/>
    <connection from="-E2" to="E4" fromLane="2" toLane="2" via=":J1_20_2" tl="J1" linkIndex="22" dir="s" state="o"/>
    <connection from="-E2" to="-E0" fromLane="2" toLane="2" via=":J1_23_0" tl="J1" linkIndex="23" dir="l" state="o"/>
    <connection from="-E3" to="E1" fromLane="0" toLane="0" via=":J1_12_0" tl="J1" linkIndex="12" dir="r" state="o"/>
    <connection from="-E3" to="E4" fromLane="1" toLane="1" via=":J1_13_0" tl="J1" linkIndex="13" dir="R" state="o"/>
    <connection from="-E3" to="-E0" fromLane="1" toLane="1" via=":J1_14_0" tl="J1" linkIndex="14" dir="L" state="o"/>
    <connection from="-E3" to="-E0" fromLane="2" toLane="2" via=":J1_14_1" tl="J1" linkIndex="15" dir="L" state="o"/>
    <connection from="-E3" to="E2" fromLane="2" toLane="2" via=":J1_16_0" tl="J1" linkIndex="16" dir="l" state="o"/>
    <connection from="-E4" to="-E0" fromLane="0" toLane="0" via=":J1_0_0" tl="J1" linkIndex="0" dir="r" state="o"/>
    <connection from="-E4" to="E2" fromLane="0" toLane="0" via=":J1_1_0" tl="J1" linkIndex="1" dir="s" state="o"/>
    <connection from="-E4" to="E2" fromLane="1" toLane="1" via=":J1_1_1" tl="J1" linkIndex="2" dir="s" state="o"/>
    <connection from="-E4" to="E2" fromLane="1" toLane="2" via=":J1_1_2" tl="J1" linkIndex="3" dir="s" state="o"/>
    <connection from="-E4" to="E3" fromLane="1" toLane="1" via=":J1_4_0" tl="J1" linkIndex="4" dir="L" state="o"/>
    <connection from="-E4" to="E1" fromLane="2" toLane="2" via=":J1_5_0" tl="J1" linkIndex="5" dir="l" state="o"/>
    <connection from="E0" to="E2" fromLane="0" toLane="0" via=":J1_24_0" tl="J1" linkIndex="24" dir="r" state="O"/>
    <connection from="E0" to="E3" fromLane="0" toLane="1" via=":J1_25_0" tl="J1" linkIndex="25" dir="R" state="O"/>
    <connection from="E0" to="E1" fromLane="0" toLane="0" via=":J1_26_0" tl="J1" linkIndex="26" dir="s" state="O"/>
    <connection from="E0" to="E1" fromLane="1" toLane="1" via=":J1_26_1" tl="J1" linkIndex="27" dir="s" state="O"/>
    <connection from="E0" to="E1" fromLane="2" toLane="2" via=":J1_26_2" tl="J1" linkIndex="28" dir="s" state="O"/>
    <connection from="E0" to="E4" fromLane="2" toLane="2" via=":J1_29_0" tl="J1" linkIndex="29" dir="l" state="o"/>

    <connection from=":J1_0" to="-E0" fromLane="0" toLane="0" dir="r" state="M"/>
    <connection from=":J1_1" to="E2" fromLane="0" toLane="0" dir="s" state="M"/>
    <connection from=":J1_1" to="E2" fromLane="1" toLane="1" dir="s" state="M"/>
    <connection from=":J1_1" to="E2" fromLane="2" toLane="2" dir="s" state="M"/>
    <connection from=":J1_4" to="E3" fromLane="0" toLane="1" via=":J1_30_0" dir="L" state="m"/>
    <connection from=":J1_30" to="E3" fromLane="0" toLane="1" dir="L" state="M"/>
    <connection from=":J1_5" to="E1" fromLane="0" toLane="2" via=":J1_31_0" dir="l" state="m"/>
    <connection from=":J1_31" to="E1" fromLane="0" toLane="2" dir="l" state="M"/>
    <connection from=":J1_6" to="E4" fromLane="0" toLane="0" dir="r" state="M"/>
    <connection from=":J1_7" to="-E0" fromLane="0" toLane="0" dir="s" state="M"/>
    <connection from=":J1_7" to="-E0" fromLane="1" toLane="1" dir="s" state="M"/>
    <connection from=":J1_7" to="-E0" fromLane="2" toLane="2" dir="s" state="M"/>
    <connection from=":J1_10" to="E2" fromLane="0" toLane="1" via=":J1_32_0" dir="L" state="m"/>
    <connection from=":J1_32" to="E2" fromLane="0" toLane="1" dir="L" state="M"/>
    <connection from=":J1_11" to="E3" fromLane="0" toLane="2" via=":J1_33_0" dir="l" state="m"/>
    <connection from=":J1_33" to="E3" fromLane="0" toLane="2" dir="l" state="M"/>
    <connection from=":J1_12" to="E1" fromLane="0" toLane="0" dir="r" state="M"/>
    <connection from=":J1_13" to="E4" fromLane="0" toLane="1" dir="R" state="M"/>
    <connection from=":J1_14" to="-E0" fromLane="0" toLane="1" dir="L" state="M"/>
    <connection from=":J1_14" to="-E0" fromLane="1" toLane="2" dir="L" state="M"/>
    <connection from=":J1_16" to="E2" fromLane="0" toLane="2" dir="l" state="M"/>
    <connection from=":J1_17" to="E3" fromLane="0" toLane="0" dir="r" state="M"/>
    <connection from=":J1_18" to="E1" fromLane="0" toLane="1" dir="R" state="M"/>
    <connection from=":J1_18" to="E1" fromLane="1" toLane="2" dir="R" state="M"/>
    <connection from=":J1_20" to="E4" fromLane="0" toLane="0" dir="s" state="M"/>
    <connection from=":J1_20" to="E4" fromLane="1" toLane="1" dir="s" state="M"/>
    <connection from=":J1_20" to="E4" fromLane="2" toLane="2" dir="s" state="M"/>
    <connection from=":J1_23" to="-E0" fromLane="0" toLane="2" via=":J1_34_0" dir="l" state="m"/>
    <connection from=":J1_34" to="-E0" fromLane="0" toLane="2" dir="l" state="M"/>
    <connection from=":J1_24" to="E2" fromLane="0" toLane="0" dir="r" state="M"/>
    <connection from=":J1_25" to="E3" fromLane="0" toLane="1" dir="R" state="M"/>
    <connection from=":J1_26" to="E1" fromLane="0" toLane="0" dir="s" state="M"/>
    <connection from=":J1_26" to="E1" fromLane="1" toLane="1" dir="s" state="M"/>
    <connection from=":J1_26" to="E1" fromLane="2" toLane="2" dir="s" state="M"/>
    <connection from=":J1_29" to="E4" fromLane="0" toLane="2" via=":J1_35_0" dir="l" state="m"/>
    <connection from=":J1_35" to="E4" fromLane="0" toLane="2" dir="l" state="M"/>

</net>
