<configuration>
    <input>
        <net-file value="beta2.net.xml"/>
        <route-files value="beta3.rou.xml"/>
    </input>
    <time>
        <begin value="0"/>
        <end value="3000"/>
    </time>
</configuration>
