<?xml version="1.0" encoding="UTF-8"?>

<!-- generated on 2025-04-11 09:00:57 by Eclipse SUMO netedit Version 1.22.0
<neteditConfiguration xmlns:xsi="http://www.w3.org/2001/XMLSchema-instance" xsi:noNamespaceSchemaLocation="http://sumo.dlr.de/xsd/neteditConfiguration.xsd">

    <input>
        <sumo-net-file value="E:\GrProject\beta2.net.xml"/>
    </input>

    <output>
        <output-file value="E:\GrProject\beta2.net.xml"/>
    </output>

    <processing>
        <geometry.min-radius.fix.railways value="false"/>
        <geometry.max-grade.fix value="false"/>
        <offset.disable-normalization value="true"/>
        <lefthand value="0"/>
    </processing>

    <junctions>
        <no-turnarounds value="true"/>
        <junctions.corner-detail value="5"/>
        <junctions.limit-turn-speed value="5.50"/>
        <rectangular-lane-cut value="0"/>
    </junctions>

    <pedestrian>
        <walkingareas value="0"/>
    </pedestrian>

</neteditConfiguration>
-->

<net version="1.20" junctionCornerDetail="5" limitTurnSpeed="5.50" xmlns:xsi="http://www.w3.org/2001/XMLSchema-instance" xsi:noNamespaceSchemaLocation="http://sumo.dlr.de/xsd/net_file.xsd">

    <location netOffset="0.00,0.00" convBoundary="-76.78,-89.85,140.90,94.00" origBoundary="-10000000000.00,-10000000000.00,10000000000.00,10000000000.00" projParameter="!"/>

    <edge id=":J1_0" function="internal">
        <lane id=":J1_0_0" index="0" speed="6.72" length="9.58" shape="39.39,15.67 36.85,16.02 35.02,17.14 33.89,19.02 33.46,21.66"/>
    </edge>
    <edge id=":J1_1" function="internal">
        <lane id=":J1_1_0" index="0" speed="13.89" length="27.46" shape="39.39,15.67 11.96,15.63"/>
        <lane id=":J1_1_1" index="1" speed="13.89" length="27.46" shape="39.42,12.47 11.93,12.43"/>
    </edge>
    <edge id=":J1_3" function="internal">
        <lane id=":J1_3_0" index="0" speed="10.36" length="24.57" shape="39.45,9.27 32.79,8.25 28.06,5.35 25.27,0.56 24.41,-6.13"/>
    </edge>
    <edge id=":J1_4" function="internal">
        <lane id=":J1_4_0" index="0" speed="6.50" length="9.03" shape="34.01,-5.99 34.32,-3.54 35.35,-1.77 37.09,-0.71 39.54,-0.33"/>
    </edge>
    <edge id=":J1_5" function="internal">
        <lane id=":J1_5_0" index="0" speed="13.89" length="27.64" shape="34.01,-5.99 33.46,21.66"/>
        <lane id=":J1_5_1" index="1" speed="13.89" length="27.64" shape="30.81,-6.04 30.26,21.58"/>
    </edge>
    <edge id=":J1_7" function="internal">
        <lane id=":J1_7_0" index="0" speed="10.52" length="24.89" shape="27.61,-6.08 26.55,0.58 23.58,5.35 18.70,8.24 11.91,9.23"/>
    </edge>
    <edge id=":J1_8" function="internal">
        <lane id=":J1_8_0" index="0" speed="6.75" length="9.64" shape="11.85,-0.37 14.51,-0.75 16.43,-1.85 17.59,-3.67 18.01,-6.21"/>
    </edge>
    <edge id=":J1_9" function="internal">
        <lane id=":J1_9_0" index="0" speed="13.89" length="27.66" shape="11.85,-0.37 39.54,-0.33"/>
        <lane id=":J1_9_1" index="1" speed="13.89" length="27.66" shape="11.87,2.83 39.51,2.87"/>
    </edge>
    <edge id=":J1_11" function="internal">
        <lane id=":J1_11_0" index="0" speed="10.32" length="24.89" shape="11.89,6.03 18.68,6.96 23.47,9.85 26.26,14.69 27.06,21.50"/>
    </edge>
    <edge id=":J1_12" function="internal">
        <lane id=":J1_12_0" index="0" speed="6.44" length="9.03" shape="17.46,21.25 17.17,18.78 16.16,17.02 14.42,15.97 11.96,15.63"/>
    </edge>
    <edge id=":J1_13" function="internal">
        <lane id=":J1_13_0" index="0" speed="13.89" length="27.49" shape="17.46,21.25 18.01,-6.21"/>
        <lane id=":J1_13_1" index="1" speed="13.89" length="27.49" shape="20.66,21.33 21.21,-6.17"/>
    </edge>
    <edge id=":J1_15" function="internal">
        <lane id=":J1_15_0" index="0" speed="10.50" length="24.88" shape="23.86,21.41 24.99,14.65 27.97,9.83 32.80,6.97 39.48,6.07"/>
    </edge>

    <edge id="-E0" from="J1" to="J0" priority="-1">
        <lane id="-E0_0" index="0" speed="13.89" length="88.68" shape="11.96,15.63 -76.73,16.23"/>
        <lane id="-E0_1" index="1" speed="13.89" length="88.68" shape="11.93,12.43 -76.75,13.03"/>
        <lane id="-E0_2" index="2" speed="13.89" length="88.68" shape="11.91,9.23 -76.77,9.83"/>
    </edge>
    <edge id="-E1" from="J2" to="J1" priority="-1">
        <lane id="-E1_0" index="0" speed="13.89" length="72.57" shape="15.58,93.79 17.46,21.25"/>
        <lane id="-E1_1" index="1" speed="13.89" length="72.57" shape="18.78,93.88 20.66,21.33"/>
        <lane id="-E1_2" index="2" speed="13.89" length="72.57" shape="21.98,93.96 23.86,21.41"/>
    </edge>
    <edge id="-E2" from="J3" to="J1" priority="-1">
        <lane id="-E2_0" index="0" speed="13.89" length="83.75" shape="35.17,-89.74 34.01,-5.99"/>
        <lane id="-E2_1" index="1" speed="13.89" length="83.75" shape="31.97,-89.78 30.81,-6.04"/>
        <lane id="-E2_2" index="2" speed="13.89" length="83.75" shape="28.77,-89.83 27.61,-6.08"/>
    </edge>
    <edge id="-E3" from="J4" to="J1" priority="-1">
        <lane id="-E3_0" index="0" speed="13.89" length="101.44" shape="140.83,16.60 39.39,15.67"/>
        <lane id="-E3_1" index="1" speed="13.89" length="101.44" shape="140.86,13.40 39.42,12.47"/>
        <lane id="-E3_2" index="2" speed="13.89" length="101.44" shape="140.89,10.20 39.45,9.27"/>
    </edge>
    <edge id="E0" from="J0" to="J1" priority="-1">
        <lane id="E0_0" index="0" speed="13.89" length="88.68" shape="-76.83,0.23 11.85,-0.37"/>
        <lane id="E0_1" index="1" speed="13.89" length="88.68" shape="-76.81,3.43 11.87,2.83"/>
        <lane id="E0_2" index="2" speed="13.89" length="88.68" shape="-76.79,6.63 11.89,6.03"/>
    </edge>
    <edge id="E1" from="J1" to="J2" priority="-1">
        <lane id="E1_0" index="0" speed="13.89" length="72.57" shape="33.46,21.66 31.58,94.21"/>
        <lane id="E1_1" index="1" speed="13.89" length="72.57" shape="30.26,21.58 28.38,94.12"/>
        <lane id="E1_2" index="2" speed="13.89" length="72.57" shape="27.06,21.50 25.18,94.04"/>
    </edge>
    <edge id="E2" from="J1" to="J3" priority="-1">
        <lane id="E2_0" index="0" speed="13.89" length="83.75" shape="18.01,-6.21 19.17,-89.96"/>
        <lane id="E2_1" index="1" speed="13.89" length="83.75" shape="21.21,-6.17 22.37,-89.92"/>
        <lane id="E2_2" index="2" speed="13.89" length="83.75" shape="24.41,-6.13 25.57,-89.87"/>
    </edge>
    <edge id="E3" from="J1" to="J4" priority="-1">
        <lane id="E3_0" index="0" speed="13.89" length="101.44" shape="39.54,-0.33 140.97,0.60"/>
        <lane id="E3_1" index="1" speed="13.89" length="101.44" shape="39.51,2.87 140.94,3.80"/>
        <lane id="E3_2" index="2" speed="13.89" length="101.44" shape="39.48,6.07 140.91,7.00"/>
    </edge>

    <tlLogic id="J1" type="static" programID="0" offset="0">
        <phase duration="35" state="rrrrGGGrrrrrGGGr"/>
        <phase duration="3"  state="rrrryyyrrrrryyyr"/>
        <phase duration="20" state="rrrrrrrGrrrrrrrG"/>
        <phase duration="3"  state="rrrrrrryrrrrrrry"/>
        <phase duration="35" state="GGGrrrrrGGGrrrrr"/>
        <phase duration="3"  state="yyyrrrrryyyrrrrr"/>
        <phase duration="20" state="rrrGrrrrrrrGrrrr"/>
        <phase duration="3"  state="rrryrrrrrrryrrrr"/>
    </tlLogic>

    <junction id="J0" type="dead_end" x="-76.78" y="8.23" incLanes="-E0_0 -E0_1 -E0_2" intLanes="" shape="-76.78,8.23 -76.72,17.83 -76.78,8.23"/>
    <junction id="J1" type="traffic_light" x="25.82" y="7.54" incLanes="-E3_0 -E3_1 -E3_2 -E2_0 -E2_1 -E2_2 E0_0 E0_1 E0_2 -E1_0 -E1_1 -E1_2" intLanes=":J1_0_0 :J1_1_0 :J1_1_1 :J1_3_0 :J1_4_0 :J1_5_0 :J1_5_1 :J1_7_0 :J1_8_0 :J1_9_0 :J1_9_1 :J1_11_0 :J1_12_0 :J1_13_0 :J1_13_1 :J1_15_0" shape="39.38,17.27 39.55,-1.93 37.34,-2.40 36.57,-2.96 36.02,-3.74 35.70,-4.75 35.61,-5.97 16.41,-6.24 15.88,-3.88 15.24,-3.05 14.35,-2.45 13.22,-2.09 11.84,-1.97 11.97,17.23 14.18,17.66 14.94,18.21 15.48,18.99 15.78,19.98 15.86,21.21 35.06,21.70 35.59,19.22 36.19,18.36 37.03,17.74 38.09,17.38">
        <request index="0"  response="0000000001100000" foes="0000000001100000" cont="0"/>
        <request index="1"  response="1111000001100000" foes="1111100001100000" cont="0"/>
        <request index="2"  response="1111000001100000" foes="1111100001100000" cont="0"/>
        <request index="3"  response="1000011011100000" foes="1000011011100000" cont="0"/>
        <request index="4"  response="0000000000000000" foes="0000011000000000" cont="0"/>
        <request index="5"  response="0000000000000000" foes="1000011000001111" cont="0"/>
        <request index="6"  response="0000000000000000" foes="1000011000001111" cont="0"/>
        <request index="7"  response="0110000000000000" foes="0110111000001000" cont="0"/>
        <request index="8"  response="0110000000000000" foes="0110000000000000" cont="0"/>
        <request index="9"  response="0110000011110000" foes="0110000011111000" cont="0"/>
        <request index="10" response="0110000011110000" foes="0110000011111000" cont="0"/>
        <request index="11" response="1110000010000110" foes="1110000010000110" cont="0"/>
        <request index="12" response="0000000000000000" foes="0000000000000110" cont="0"/>
        <request index="13" response="0000000000000000" foes="0000111110000110" cont="0"/>
        <request index="14" response="0000000000000000" foes="0000111110000110" cont="0"/>
        <request index="15" response="0000000001100000" foes="0000100001101110" cont="0"/>
    </junction>
    <junction id="J2" type="dead_end" x="23.58" y="94.00" incLanes="E1_0 E1_1 E1_2" intLanes="" shape="23.58,94.00 33.18,94.25 23.58,94.00"/>
    <junction id="J3" type="dead_end" x="27.17" y="-89.85" incLanes="E2_0 E2_1 E2_2" intLanes="" shape="27.17,-89.85 17.57,-89.98 27.17,-89.85"/>
    <junction id="J4" type="dead_end" x="140.90" y="8.60" incLanes="E3_0 E3_1 E3_2" intLanes="" shape="140.90,8.60 140.99,-1.00 140.90,8.60"/>

    <connection from="-E1" to="-E0" fromLane="0" toLane="0" via=":J1_12_0" tl="J1" linkIndex="12" dir="r" state="O"/>
    <connection from="-E1" to="E2" fromLane="0" toLane="0" via=":J1_13_0" tl="J1" linkIndex="13" dir="s" state="O"/>
    <connection from="-E1" to="E2" fromLane="1" toLane="1" via=":J1_13_1" tl="J1" linkIndex="14" dir="s" state="O"/>
    <connection from="-E1" to="E3" fromLane="2" toLane="2" via=":J1_15_0" tl="J1" linkIndex="15" dir="l" state="o"/>
    <connection from="-E2" to="E3" fromLane="0" toLane="0" via=":J1_4_0" tl="J1" linkIndex="4" dir="r" state="O"/>
    <connection from="-E2" to="E1" fromLane="0" toLane="0" via=":J1_5_0" tl="J1" linkIndex="5" dir="s" state="O"/>
    <connection from="-E2" to="E1" fromLane="1" toLane="1" via=":J1_5_1" tl="J1" linkIndex="6" dir="s" state="O"/>
    <connection from="-E2" to="-E0" fromLane="2" toLane="2" via=":J1_7_0" tl="J1" linkIndex="7" dir="l" state="o"/>
    <connection from="-E3" to="E1" fromLane="0" toLane="0" via=":J1_0_0" tl="J1" linkIndex="0" dir="r" state="o"/>
    <connection from="-E3" to="-E0" fromLane="0" toLane="0" via=":J1_1_0" tl="J1" linkIndex="1" dir="s" state="o"/>
    <connection from="-E3" to="-E0" fromLane="1" toLane="1" via=":J1_1_1" tl="J1" linkIndex="2" dir="s" state="o"/>
    <connection from="-E3" to="E2" fromLane="2" toLane="2" via=":J1_3_0" tl="J1" linkIndex="3" dir="l" state="o"/>
    <connection from="E0" to="E2" fromLane="0" toLane="0" via=":J1_8_0" tl="J1" linkIndex="8" dir="r" state="o"/>
    <connection from="E0" to="E3" fromLane="0" toLane="0" via=":J1_9_0" tl="J1" linkIndex="9" dir="s" state="o"/>
    <connection from="E0" to="E3" fromLane="1" toLane="1" via=":J1_9_1" tl="J1" linkIndex="10" dir="s" state="o"/>
    <connection from="E0" to="E1" fromLane="2" toLane="2" via=":J1_11_0" tl="J1" linkIndex="11" dir="l" state="o"/>

    <connection from=":J1_0" to="E1" fromLane="0" toLane="0" dir="r" state="M"/>
    <connection from=":J1_1" to="-E0" fromLane="0" toLane="0" dir="s" state="M"/>
    <connection from=":J1_1" to="-E0" fromLane="1" toLane="1" dir="s" state="M"/>
    <connection from=":J1_3" to="E2" fromLane="0" toLane="2" dir="l" state="M"/>
    <connection from=":J1_4" to="E3" fromLane="0" toLane="0" dir="r" state="M"/>
    <connection from=":J1_5" to="E1" fromLane="0" toLane="0" dir="s" state="M"/>
    <connection from=":J1_5" to="E1" fromLane="1" toLane="1" dir="s" state="M"/>
    <connection from=":J1_7" to="-E0" fromLane="0" toLane="2" dir="l" state="M"/>
    <connection from=":J1_8" to="E2" fromLane="0" toLane="0" dir="r" state="M"/>
    <connection from=":J1_9" to="E3" fromLane="0" toLane="0" dir="s" state="M"/>
    <connection from=":J1_9" to="E3" fromLane="1" toLane="1" dir="s" state="M"/>
    <connection from=":J1_11" to="E1" fromLane="0" toLane="2" dir="l" state="M"/>
    <connection from=":J1_12" to="-E0" fromLane="0" toLane="0" dir="r" state="M"/>
    <connection from=":J1_13" to="E2" fromLane="0" toLane="0" dir="s" state="M"/>
    <connection from=":J1_13" to="E2" fromLane="1" toLane="1" dir="s" state="M"/>
    <connection from=":J1_15" to="E3" fromLane="0" toLane="2" dir="l" state="M"/>

</net>
