<?xml version='1.0' encoding='utf-8'?>
<routes><vType id="car" accel="1.0" decel="4.5" sigma="0.5" length="5" minGap="2.5" maxSpeed="25" guiShape="passenger" /><vehicle id="veh585" type="car" depart="13.24" departLane="random" departSpeed="max"><route edges="-E1 E2" /></vehicle><vehicle id="veh84" type="car" depart="16.53" departLane="random" departSpeed="max"><route edges="-E3 E2" /></vehicle><vehicle id="veh837" type="car" depart="16.6" departLane="random" departSpeed="max"><route edges="-E2 E3" /></vehicle><vehicle id="veh367" type="car" depart="23.82" departLane="random" departSpeed="max"><route edges="-E1 E3" /></vehicle><vehicle id="veh107" type="car" depart="24.69" departLane="random" departSpeed="max"><route edges="-E2 E3" /></vehicle><vehicle id="veh684" type="car" depart="31.31" departLane="random" departSpeed="max"><route edges="-E1 E2" /></vehicle><vehicle id="veh389" type="car" depart="33.17" departLane="random" departSpeed="max"><route edges="-E3 E2" /></vehicle><vehicle id="veh680" type="car" depart="38.85" departLane="random" departSpeed="max"><route edges="-E1 E2" /></vehicle><vehicle id="veh357" type="car" depart="39.38" departLane="random" departSpeed="max"><route edges="-E3 E2" /></vehicle><vehicle id="veh262" type="car" depart="44.12" departLane="random" departSpeed="max"><route edges="-E2 E3" /></vehicle><vehicle id="veh265" type="car" depart="60.12" departLane="random" departSpeed="max"><route edges="-E1 E2" /></vehicle><vehicle id="veh88" type="car" depart="60.91" departLane="random" departSpeed="max"><route edges="-E1 E2" /></vehicle><vehicle id="veh44" type="car" depart="62.83" departLane="random" departSpeed="max"><route edges="-E3 E1" /></vehicle><vehicle id="veh578" type="car" depart="66.12" departLane="random" departSpeed="max"><route edges="-E2 E3" /></vehicle><vehicle id="veh848" type="car" depart="67.12" departLane="random" departSpeed="max"><route edges="-E2 E1" /></vehicle><vehicle id="veh871" type="car" depart="68.61" departLane="random" departSpeed="max"><route edges="-E1 E2" /></vehicle><vehicle id="veh840" type="car" depart="73.53" departLane="random" departSpeed="max"><route edges="-E3 E1" /></vehicle><vehicle id="veh702" type="car" depart="81.41" departLane="random" departSpeed="max"><route edges="-E2 E1" /></vehicle><vehicle id="veh381" type="car" depart="87.1" departLane="random" departSpeed="max"><route edges="-E1 E2" /></vehicle><vehicle id="veh324" type="car" depart="87.63" departLane="random" departSpeed="max"><route edges="-E2 E3" /></vehicle><vehicle id="veh247" type="car" depart="89.66" departLane="random" departSpeed="max"><route edges="-E2 E1" /></vehicle><vehicle id="veh584" type="car" depart="100.92" departLane="random" departSpeed="max"><route edges="-E3 E2" /></vehicle><vehicle id="veh661" type="car" depart="104.02" departLane="random" departSpeed="max"><route edges="-E2 E1" /></vehicle><vehicle id="veh137" type="car" depart="107.9" departLane="random" departSpeed="max"><route edges="-E2 E1" /></vehicle><vehicle id="veh919" type="car" depart="111.48" departLane="random" departSpeed="max"><route edges="-E1 E2" /></vehicle><vehicle id="veh75" type="car" depart="112.09" departLane="random" departSpeed="max"><route edges="-E2 E3" /></vehicle><vehicle id="veh634" type="car" depart="112.43" departLane="random" departSpeed="max"><route edges="-E3 E1" /></vehicle><vehicle id="veh716" type="car" depart="113.4" departLane="random" departSpeed="max"><route edges="-E1 E3" /></vehicle><vehicle id="veh278" type="car" depart="117.7" departLane="random" departSpeed="max"><route edges="-E2 E3" /></vehicle><vehicle id="veh576" type="car" depart="120.07" departLane="random" departSpeed="max"><route edges="-E1 E3" /></vehicle><vehicle id="veh879" type="car" depart="124.28" departLane="random" departSpeed="max"><route edges="-E3 E1" /></vehicle><vehicle id="veh433" type="car" depart="126.01" departLane="random" departSpeed="max"><route edges="-E3 E1" /></vehicle><vehicle id="veh887" type="car" depart="129.91" departLane="random" departSpeed="max"><route edges="-E2 E3" /></vehicle><vehicle id="veh45" type="car" depart="130.55" departLane="random" departSpeed="max"><route edges="-E1 E3" /></vehicle><vehicle id="veh914" type="car" depart="131.65" departLane="random" departSpeed="max"><route edges="-E2 E3" /></vehicle><vehicle id="veh64" type="car" depart="133.2" departLane="random" departSpeed="max"><route edges="-E3 E1" /></vehicle><vehicle id="veh668" type="car" depart="134.85" departLane="random" departSpeed="max"><route edges="-E2 E3" /></vehicle><vehicle id="veh771" type="car" depart="135.98" departLane="random" departSpeed="max"><route edges="-E1 E2" /></vehicle><vehicle id="veh374" type="car" depart="150.38" departLane="random" departSpeed="max"><route edges="-E2 E3" /></vehicle><vehicle id="veh738" type="car" depart="156.33" departLane="random" departSpeed="max"><route edges="-E1 E3" /></vehicle><vehicle id="veh854" type="car" depart="156.82" departLane="random" departSpeed="max"><route edges="-E2 E1" /></vehicle><vehicle id="veh483" type="car" depart="158.37" departLane="random" departSpeed="max"><route edges="-E2 E1" /></vehicle><vehicle id="veh0" type="car" depart="161.61" departLane="random" departSpeed="max"><route edges="-E3 E1" /></vehicle><vehicle id="veh288" type="car" depart="163.49" departLane="random" departSpeed="max"><route edges="-E2 E3" /></vehicle><vehicle id="veh492" type="car" depart="163.84" departLane="random" departSpeed="max"><route edges="-E1 E3" /></vehicle><vehicle id="veh610" type="car" depart="171.48" departLane="random" departSpeed="max"><route edges="-E1 E3" /></vehicle><vehicle id="veh663" type="car" depart="177.01" departLane="random" departSpeed="max"><route edges="-E1 E2" /></vehicle><vehicle id="veh739" type="car" depart="182.75" departLane="random" departSpeed="max"><route edges="-E2 E3" /></vehicle><vehicle id="veh241" type="car" depart="183.06" departLane="random" departSpeed="max"><route edges="-E1 E2" /></vehicle><vehicle id="veh982" type="car" depart="189.31" departLane="random" departSpeed="max"><route edges="-E2 E3" /></vehicle><vehicle id="veh941" type="car" depart="189.75" departLane="random" departSpeed="max"><route edges="-E2 E1" /></vehicle><vehicle id="veh581" type="car" depart="191.17" departLane="random" departSpeed="max"><route edges="-E3 E1" /></vehicle><vehicle id="veh372" type="car" depart="194.77" departLane="random" departSpeed="max"><route edges="-E2 E1" /></vehicle><vehicle id="veh121" type="car" depart="195.22" departLane="random" departSpeed="max"><route edges="-E2 E1" /></vehicle><vehicle id="veh803" type="car" depart="196.6" departLane="random" departSpeed="max"><route edges="-E2 E1" /></vehicle><vehicle id="veh638" type="car" depart="198.25" departLane="random" departSpeed="max"><route edges="-E1 E2" /></vehicle><vehicle id="veh82" type="car" depart="200.81" departLane="random" departSpeed="max"><route edges="-E2 E3" /></vehicle><vehicle id="veh789" type="car" depart="202.54" departLane="random" departSpeed="max"><route edges="-E2 E3" /></vehicle><vehicle id="veh805" type="car" depart="203.16" departLane="random" departSpeed="max"><route edges="-E3 E2" /></vehicle><vehicle id="veh110" type="car" depart="205.69" departLane="random" departSpeed="max"><route edges="-E1 E3" /></vehicle><vehicle id="veh140" type="car" depart="207.11" departLane="random" departSpeed="max"><route edges="-E2 E1" /></vehicle><vehicle id="veh487" type="car" depart="220.78" departLane="random" departSpeed="max"><route edges="-E3 E2" /></vehicle><vehicle id="veh961" type="car" depart="224.35" departLane="random" departSpeed="max"><route edges="-E2 E1" /></vehicle><vehicle id="veh931" type="car" depart="228.57" departLane="random" departSpeed="max"><route edges="-E2 E3" /></vehicle><vehicle id="veh3" type="car" depart="229.21" departLane="random" departSpeed="max"><route edges="-E1 E3" /></vehicle><vehicle id="veh48" type="car" depart="231.29" departLane="random" departSpeed="max"><route edges="-E1 E2" /></vehicle><vehicle id="veh601" type="car" depart="238.28" departLane="random" departSpeed="max"><route edges="-E2 E3" /></vehicle><vehicle id="veh52" type="car" depart="247.12" departLane="random" departSpeed="max"><route edges="-E2 E3" /></vehicle><vehicle id="veh347" type="car" depart="250.75" departLane="random" departSpeed="max"><route edges="-E3 E2" /></vehicle><vehicle id="veh799" type="car" depart="252.81" departLane="random" departSpeed="max"><route edges="-E2 E3" /></vehicle><vehicle id="veh920" type="car" depart="256.84" departLane="random" departSpeed="max"><route edges="-E2 E1" /></vehicle><vehicle id="veh554" type="car" depart="259.69" departLane="random" departSpeed="max"><route edges="-E3 E2" /></vehicle><vehicle id="veh159" type="car" depart="269.54" departLane="random" departSpeed="max"><route edges="-E2 E1" /></vehicle><vehicle id="veh625" type="car" depart="270.8" departLane="random" departSpeed="max"><route edges="-E2 E1" /></vehicle><vehicle id="veh938" type="car" depart="271.49" departLane="random" departSpeed="max"><route edges="-E3 E1" /></vehicle><vehicle id="veh1" type="car" depart="290.5" departLane="random" departSpeed="max"><route edges="-E3 E2" /></vehicle><vehicle id="veh380" type="car" depart="293.67" departLane="random" departSpeed="max"><route edges="-E3 E1" /></vehicle><vehicle id="veh885" type="car" depart="293.86" departLane="random" departSpeed="max"><route edges="-E1 E3" /></vehicle><vehicle id="veh189" type="car" depart="296.14" departLane="random" departSpeed="max"><route edges="-E3 E2" /></vehicle><vehicle id="veh358" type="car" depart="300.5" departLane="random" departSpeed="max"><route edges="-E3 E1" /></vehicle><vehicle id="veh722" type="car" depart="301.89" departLane="random" departSpeed="max"><route edges="-E3 E2" /></vehicle><vehicle id="veh345" type="car" depart="315.97" departLane="random" departSpeed="max"><route edges="-E2 E3" /></vehicle><vehicle id="veh720" type="car" depart="317.99" departLane="random" departSpeed="max"><route edges="-E1 E3" /></vehicle><vehicle id="veh969" type="car" depart="328.08" departLane="random" departSpeed="max"><route edges="-E2 E3" /></vehicle><vehicle id="veh396" type="car" depart="328.77" departLane="random" departSpeed="max"><route edges="-E1 E3" /></vehicle><vehicle id="veh726" type="car" depart="331.17" departLane="random" departSpeed="max"><route edges="-E1 E2" /></vehicle><vehicle id="veh603" type="car" depart="346.58" departLane="random" departSpeed="max"><route edges="-E2 E3" /></vehicle><vehicle id="veh899" type="car" depart="349.28" departLane="random" departSpeed="max"><route edges="-E2 E1" /></vehicle><vehicle id="veh612" type="car" depart="349.6" departLane="random" departSpeed="max"><route edges="-E1 E3" /></vehicle><vehicle id="veh921" type="car" depart="350.94" departLane="random" departSpeed="max"><route edges="-E3 E2" /></vehicle><vehicle id="veh116" type="car" depart="355.17" departLane="random" departSpeed="max"><route edges="-E3 E2" /></vehicle><vehicle id="veh816" type="car" depart="357.02" departLane="random" departSpeed="max"><route edges="-E2 E3" /></vehicle><vehicle id="veh795" type="car" depart="357.95" departLane="random" departSpeed="max"><route edges="-E1 E2" /></vehicle><vehicle id="veh593" type="car" depart="358.14" departLane="random" departSpeed="max"><route edges="-E2 E1" /></vehicle><vehicle id="veh724" type="car" depart="361.51" departLane="random" departSpeed="max"><route edges="-E2 E1" /></vehicle><vehicle id="veh245" type="car" depart="362.21" departLane="random" departSpeed="max"><route edges="-E3 E2" /></vehicle><vehicle id="veh861" type="car" depart="370.2" departLane="random" departSpeed="max"><route edges="-E3 E1" /></vehicle><vehicle id="veh588" type="car" depart="370.41" departLane="random" departSpeed="max"><route edges="-E2 E3" /></vehicle><vehicle id="veh764" type="car" depart="371.22" departLane="random" departSpeed="max"><route edges="-E2 E1" /></vehicle><vehicle id="veh893" type="car" depart="371.29" departLane="random" departSpeed="max"><route edges="-E3 E1" /></vehicle><vehicle id="veh117" type="car" depart="380.45" departLane="random" departSpeed="max"><route edges="-E2 E1" /></vehicle><vehicle id="veh266" type="car" depart="382.99" departLane="random" departSpeed="max"><route edges="-E2 E1" /></vehicle><vehicle id="veh993" type="car" depart="392.99" departLane="random" departSpeed="max"><route edges="-E1 E2" /></vehicle><vehicle id="veh510" type="car" depart="393.18" departLane="random" departSpeed="max"><route edges="-E3 E2" /></vehicle><vehicle id="veh774" type="car" depart="393.35" departLane="random" departSpeed="max"><route edges="-E3 E2" /></vehicle><vehicle id="veh309" type="car" depart="399.87" departLane="random" departSpeed="max"><route edges="-E3 E1" /></vehicle><vehicle id="veh958" type="car" depart="418.37" departLane="random" departSpeed="max"><route edges="-E3 E2" /></vehicle><vehicle id="veh61" type="car" depart="421.91" departLane="random" departSpeed="max"><route edges="-E3 E2" /></vehicle><vehicle id="veh564" type="car" depart="430.48" departLane="random" departSpeed="max"><route edges="-E2 E1" /></vehicle><vehicle id="veh683" type="car" depart="431.32" departLane="random" departSpeed="max"><route edges="-E1 E2" /></vehicle><vehicle id="veh755" type="car" depart="432.14" departLane="random" departSpeed="max"><route edges="-E1 E3" /></vehicle><vehicle id="veh748" type="car" depart="442.61" departLane="random" departSpeed="max"><route edges="-E2 E3" /></vehicle><vehicle id="veh534" type="car" depart="446.81" departLane="random" departSpeed="max"><route edges="-E3 E1" /></vehicle><vehicle id="veh776" type="car" depart="446.84" departLane="random" departSpeed="max"><route edges="-E3 E1" /></vehicle><vehicle id="veh618" type="car" depart="452.74" departLane="random" departSpeed="max"><route edges="-E1 E2" /></vehicle><vehicle id="veh448" type="car" depart="452.83" departLane="random" departSpeed="max"><route edges="-E1 E2" /></vehicle><vehicle id="veh230" type="car" depart="458.57" departLane="random" departSpeed="max"><route edges="-E2 E1" /></vehicle><vehicle id="veh316" type="car" depart="462.29" departLane="random" departSpeed="max"><route edges="-E1 E2" /></vehicle><vehicle id="veh58" type="car" depart="463.19" departLane="random" departSpeed="max"><route edges="-E2 E1" /></vehicle><vehicle id="veh725" type="car" depart="464.29" departLane="random" departSpeed="max"><route edges="-E2 E1" /></vehicle><vehicle id="veh649" type="car" depart="465.59" departLane="random" departSpeed="max"><route edges="-E2 E3" /></vehicle><vehicle id="veh602" type="car" depart="470.63" departLane="random" departSpeed="max"><route edges="-E1 E2" /></vehicle><vehicle id="veh560" type="car" depart="471.04" departLane="random" departSpeed="max"><route edges="-E2 E1" /></vehicle><vehicle id="veh701" type="car" depart="473.1" departLane="random" departSpeed="max"><route edges="-E2 E3" /></vehicle><vehicle id="veh784" type="car" depart="473.53" departLane="random" departSpeed="max"><route edges="-E3 E1" /></vehicle><vehicle id="veh436" type="car" depart="474.46" departLane="random" departSpeed="max"><route edges="-E1 E3" /></vehicle><vehicle id="veh552" type="car" depart="477.66" departLane="random" departSpeed="max"><route edges="-E1 E2" /></vehicle><vehicle id="veh550" type="car" depart="490.37" departLane="random" departSpeed="max"><route edges="-E1 E2" /></vehicle><vehicle id="veh297" type="car" depart="490.96" departLane="random" departSpeed="max"><route edges="-E3 E1" /></vehicle><vehicle id="veh895" type="car" depart="492.59" departLane="random" departSpeed="max"><route edges="-E1 E3" /></vehicle><vehicle id="veh382" type="car" depart="493.73" departLane="random" departSpeed="max"><route edges="-E3 E1" /></vehicle><vehicle id="veh880" type="car" depart="500.96" departLane="random" departSpeed="max"><route edges="-E3 E2" /></vehicle><vehicle id="veh549" type="car" depart="504.26" departLane="random" departSpeed="max"><route edges="-E1 E3" /></vehicle><vehicle id="veh476" type="car" depart="519.63" departLane="random" departSpeed="max"><route edges="-E3 E1" /></vehicle><vehicle id="veh729" type="car" depart="529.74" departLane="random" departSpeed="max"><route edges="-E1 E2" /></vehicle><vehicle id="veh412" type="car" depart="537.15" departLane="random" departSpeed="max"><route edges="-E1 E2" /></vehicle><vehicle id="veh620" type="car" depart="537.93" departLane="random" departSpeed="max"><route edges="-E1 E3" /></vehicle><vehicle id="veh875" type="car" depart="548.61" departLane="random" departSpeed="max"><route edges="-E3 E1" /></vehicle><vehicle id="veh156" type="car" depart="550.23" departLane="random" departSpeed="max"><route edges="-E2 E1" /></vehicle><vehicle id="veh141" type="car" depart="553.13" departLane="random" departSpeed="max"><route edges="-E3 E2" /></vehicle><vehicle id="veh909" type="car" depart="554.37" departLane="random" departSpeed="max"><route edges="-E1 E3" /></vehicle><vehicle id="veh179" type="car" depart="554.65" departLane="random" departSpeed="max"><route edges="-E3 E1" /></vehicle><vehicle id="veh744" type="car" depart="555.24" departLane="random" departSpeed="max"><route edges="-E2 E1" /></vehicle><vehicle id="veh843" type="car" depart="555.67" departLane="random" departSpeed="max"><route edges="-E3 E2" /></vehicle><vehicle id="veh775" type="car" depart="567.78" departLane="random" departSpeed="max"><route edges="-E1 E2" /></vehicle><vehicle id="veh735" type="car" depart="568.61" departLane="random" departSpeed="max"><route edges="-E2 E1" /></vehicle><vehicle id="veh12" type="car" depart="575.05" departLane="random" departSpeed="max"><route edges="-E2 E1" /></vehicle><vehicle id="veh105" type="car" depart="582.18" departLane="random" departSpeed="max"><route edges="-E3 E2" /></vehicle><vehicle id="veh24" type="car" depart="586.49" departLane="random" departSpeed="max"><route edges="-E1 E3" /></vehicle><vehicle id="veh734" type="car" depart="587.29" departLane="random" departSpeed="max"><route edges="-E1 E2" /></vehicle><vehicle id="veh746" type="car" depart="588.46" departLane="random" departSpeed="max"><route edges="-E1 E2" /></vehicle><vehicle id="veh846" type="car" depart="591.59" departLane="random" departSpeed="max"><route edges="-E3 E1" /></vehicle><vehicle id="veh619" type="car" depart="595.86" departLane="random" departSpeed="max"><route edges="-E2 E1" /></vehicle><vehicle id="veh134" type="car" depart="596.09" departLane="random" departSpeed="max"><route edges="-E3 E1" /></vehicle><vehicle id="veh911" type="car" depart="597.52" departLane="random" departSpeed="max"><route edges="-E1 E2" /></vehicle><vehicle id="veh986" type="car" depart="601.64" departLane="random" departSpeed="max"><route edges="-E1 E2" /></vehicle><vehicle id="veh478" type="car" depart="604.53" departLane="random" departSpeed="max"><route edges="-E3 E1" /></vehicle><vehicle id="veh246" type="car" depart="605.23" departLane="random" departSpeed="max"><route edges="-E2 E3" /></vehicle><vehicle id="veh332" type="car" depart="606.7" departLane="random" departSpeed="max"><route edges="-E3 E1" /></vehicle><vehicle id="veh838" type="car" depart="612.06" departLane="random" departSpeed="max"><route edges="-E2 E1" /></vehicle><vehicle id="veh737" type="car" depart="619.94" departLane="random" departSpeed="max"><route edges="-E3 E2" /></vehicle><vehicle id="veh996" type="car" depart="620.71" departLane="random" departSpeed="max"><route edges="-E1 E2" /></vehicle><vehicle id="veh480" type="car" depart="622.21" departLane="random" departSpeed="max"><route edges="-E3 E1" /></vehicle><vehicle id="veh287" type="car" depart="627.14" departLane="random" departSpeed="max"><route edges="-E1 E2" /></vehicle><vehicle id="veh432" type="car" depart="634.0" departLane="random" departSpeed="max"><route edges="-E1 E2" /></vehicle><vehicle id="veh677" type="car" depart="643.13" departLane="random" departSpeed="max"><route edges="-E1 E3" /></vehicle><vehicle id="veh35" type="car" depart="650.08" departLane="random" departSpeed="max"><route edges="-E3 E2" /></vehicle><vehicle id="veh545" type="car" depart="650.9" departLane="random" departSpeed="max"><route edges="-E2 E3" /></vehicle><vehicle id="veh842" type="car" depart="650.96" departLane="random" departSpeed="max"><route edges="-E2 E1" /></vehicle><vehicle id="veh224" type="car" depart="658.6" departLane="random" departSpeed="max"><route edges="-E1 E2" /></vehicle><vehicle id="veh944" type="car" depart="661.7" departLane="random" departSpeed="max"><route edges="-E3 E1" /></vehicle><vehicle id="veh527" type="car" depart="670.44" departLane="random" departSpeed="max"><route edges="-E2 E1" /></vehicle><vehicle id="veh804" type="car" depart="671.86" departLane="random" departSpeed="max"><route edges="-E2 E1" /></vehicle><vehicle id="veh386" type="car" depart="673.22" departLane="random" departSpeed="max"><route edges="-E1 E2" /></vehicle><vehicle id="veh528" type="car" depart="675.42" departLane="random" departSpeed="max"><route edges="-E3 E2" /></vehicle><vehicle id="veh567" type="car" depart="678.47" departLane="random" departSpeed="max"><route edges="-E1 E3" /></vehicle><vehicle id="veh417" type="car" depart="681.14" departLane="random" departSpeed="max"><route edges="-E2 E1" /></vehicle><vehicle id="veh248" type="car" depart="692.94" departLane="random" departSpeed="max"><route edges="-E2 E3" /></vehicle><vehicle id="veh68" type="car" depart="692.96" departLane="random" departSpeed="max"><route edges="-E3 E2" /></vehicle><vehicle id="veh231" type="car" depart="695.09" departLane="random" departSpeed="max"><route edges="-E2 E3" /></vehicle><vehicle id="veh292" type="car" depart="698.39" departLane="random" departSpeed="max"><route edges="-E3 E2" /></vehicle><vehicle id="veh692" type="car" depart="711.94" departLane="random" departSpeed="max"><route edges="-E2 E1" /></vehicle><vehicle id="veh182" type="car" depart="721.91" departLane="random" departSpeed="max"><route edges="-E3 E1" /></vehicle><vehicle id="veh339" type="car" depart="727.47" departLane="random" departSpeed="max"><route edges="-E3 E2" /></vehicle><vehicle id="veh96" type="car" depart="730.12" departLane="random" departSpeed="max"><route edges="-E1 E2" /></vehicle><vehicle id="veh927" type="car" depart="738.94" departLane="random" departSpeed="max"><route edges="-E2 E3" /></vehicle><vehicle id="veh209" type="car" depart="740.08" departLane="random" departSpeed="max"><route edges="-E1 E2" /></vehicle><vehicle id="veh673" type="car" depart="741.18" departLane="random" departSpeed="max"><route edges="-E1 E3" /></vehicle><vehicle id="veh951" type="car" depart="741.37" departLane="random" departSpeed="max"><route edges="-E1 E2" /></vehicle><vehicle id="veh146" type="car" depart="746.3" departLane="random" departSpeed="max"><route edges="-E1 E3" /></vehicle><vehicle id="veh178" type="car" depart="747.74" departLane="random" departSpeed="max"><route edges="-E3 E1" /></vehicle><vehicle id="veh797" type="car" depart="751.4" departLane="random" departSpeed="max"><route edges="-E3 E1" /></vehicle><vehicle id="veh568" type="car" depart="752.24" departLane="random" departSpeed="max"><route edges="-E1 E3" /></vehicle><vehicle id="veh59" type="car" depart="754.56" departLane="random" departSpeed="max"><route edges="-E2 E3" /></vehicle><vehicle id="veh193" type="car" depart="756.73" departLane="random" departSpeed="max"><route edges="-E3 E1" /></vehicle><vehicle id="veh243" type="car" depart="759.04" departLane="random" departSpeed="max"><route edges="-E2 E1" /></vehicle><vehicle id="veh187" type="car" depart="762.57" departLane="random" departSpeed="max"><route edges="-E1 E2" /></vehicle><vehicle id="veh867" type="car" depart="766.12" departLane="random" departSpeed="max"><route edges="-E3 E1" /></vehicle><vehicle id="veh514" type="car" depart="768.64" departLane="random" departSpeed="max"><route edges="-E3 E2" /></vehicle><vehicle id="veh999" type="car" depart="769.2" departLane="random" departSpeed="max"><route edges="-E3 E2" /></vehicle><vehicle id="veh828" type="car" depart="772.41" departLane="random" departSpeed="max"><route edges="-E1 E2" /></vehicle><vehicle id="veh858" type="car" depart="773.58" departLane="random" departSpeed="max"><route edges="-E2 E3" /></vehicle><vehicle id="veh518" type="car" depart="784.27" departLane="random" departSpeed="max"><route edges="-E1 E3" /></vehicle><vehicle id="veh304" type="car" depart="792.09" departLane="random" departSpeed="max"><route edges="-E3 E1" /></vehicle><vehicle id="veh249" type="car" depart="811.37" departLane="random" departSpeed="max"><route edges="-E2 E3" /></vehicle><vehicle id="veh404" type="car" depart="818.04" departLane="random" departSpeed="max"><route edges="-E3 E1" /></vehicle><vehicle id="veh214" type="car" depart="818.37" departLane="random" departSpeed="max"><route edges="-E3 E2" /></vehicle><vehicle id="veh541" type="car" depart="818.9" departLane="random" departSpeed="max"><route edges="-E2 E3" /></vehicle><vehicle id="veh490" type="car" depart="820.48" departLane="random" departSpeed="max"><route edges="-E2 E1" /></vehicle><vehicle id="veh17" type="car" depart="821.51" departLane="random" departSpeed="max"><route edges="-E2 E1" /></vehicle><vehicle id="veh307" type="car" depart="823.51" departLane="random" departSpeed="max"><route edges="-E2 E1" /></vehicle><vehicle id="veh972" type="car" depart="825.0" departLane="random" departSpeed="max"><route edges="-E2 E3" /></vehicle><vehicle id="veh516" type="car" depart="831.68" departLane="random" departSpeed="max"><route edges="-E3 E2" /></vehicle><vehicle id="veh950" type="car" depart="836.87" departLane="random" departSpeed="max"><route edges="-E3 E1" /></vehicle><vehicle id="veh114" type="car" depart="838.66" departLane="random" departSpeed="max"><route edges="-E1 E3" /></vehicle><vehicle id="veh328" type="car" depart="841.53" departLane="random" departSpeed="max"><route edges="-E3 E1" /></vehicle><vehicle id="veh703" type="car" depart="847.39" departLane="random" departSpeed="max"><route edges="-E3 E1" /></vehicle><vehicle id="veh125" type="car" depart="849.24" departLane="random" departSpeed="max"><route edges="-E1 E2" /></vehicle><vehicle id="veh822" type="car" depart="850.79" departLane="random" departSpeed="max"><route edges="-E1 E2" /></vehicle><vehicle id="veh537" type="car" depart="851.24" departLane="random" departSpeed="max"><route edges="-E2 E3" /></vehicle><vehicle id="veh874" type="car" depart="854.36" departLane="random" departSpeed="max"><route edges="-E2 E3" /></vehicle><vehicle id="veh57" type="car" depart="858.5" departLane="random" departSpeed="max"><route edges="-E2 E1" /></vehicle><vehicle id="veh520" type="car" depart="861.84" departLane="random" departSpeed="max"><route edges="-E3 E1" /></vehicle><vehicle id="veh175" type="car" depart="868.39" departLane="random" departSpeed="max"><route edges="-E2 E1" /></vehicle><vehicle id="veh642" type="car" depart="877.31" departLane="random" departSpeed="max"><route edges="-E2 E3" /></vehicle><vehicle id="veh717" type="car" depart="879.92" departLane="random" departSpeed="max"><route edges="-E3 E1" /></vehicle><vehicle id="veh522" type="car" depart="889.55" departLane="random" departSpeed="max"><route edges="-E2 E3" /></vehicle><vehicle id="veh10" type="car" depart="892.38" departLane="random" departSpeed="max"><route edges="-E2 E1" /></vehicle><vehicle id="veh314" type="car" depart="893.97" departLane="random" departSpeed="max"><route edges="-E3 E2" /></vehicle><vehicle id="veh293" type="car" depart="905.74" departLane="random" departSpeed="max"><route edges="-E2 E1" /></vehicle><vehicle id="veh91" type="car" depart="909.5" departLane="random" departSpeed="max"><route edges="-E2 E3" /></vehicle><vehicle id="veh814" type="car" depart="910.46" departLane="random" departSpeed="max"><route edges="-E2 E3" /></vehicle><vehicle id="veh798" type="car" depart="923.07" departLane="random" departSpeed="max"><route edges="-E1 E2" /></vehicle><vehicle id="veh562" type="car" depart="926.6" departLane="random" departSpeed="max"><route edges="-E1 E3" /></vehicle><vehicle id="veh756" type="car" depart="928.57" departLane="random" departSpeed="max"><route edges="-E2 E1" /></vehicle><vehicle id="veh678" type="car" depart="929.99" departLane="random" departSpeed="max"><route edges="-E3 E2" /></vehicle><vehicle id="veh446" type="car" depart="941.86" departLane="random" departSpeed="max"><route edges="-E1 E2" /></vehicle><vehicle id="veh606" type="car" depart="944.36" departLane="random" departSpeed="max"><route edges="-E3 E1" /></vehicle><vehicle id="veh215" type="car" depart="948.26" departLane="random" departSpeed="max"><route edges="-E2 E1" /></vehicle><vehicle id="veh139" type="car" depart="959.38" departLane="random" departSpeed="max"><route edges="-E3 E2" /></vehicle><vehicle id="veh472" type="car" depart="961.08" departLane="random" departSpeed="max"><route edges="-E2 E3" /></vehicle><vehicle id="veh866" type="car" depart="967.4" departLane="random" departSpeed="max"><route edges="-E2 E1" /></vehicle><vehicle id="veh475" type="car" depart="971.57" departLane="random" departSpeed="max"><route edges="-E1 E3" /></vehicle><vehicle id="veh70" type="car" depart="972.39" departLane="random" departSpeed="max"><route edges="-E3 E1" /></vehicle><vehicle id="veh327" type="car" depart="980.0" departLane="random" departSpeed="max"><route edges="-E3 E2" /></vehicle><vehicle id="veh450" type="car" depart="981.65" departLane="random" departSpeed="max"><route edges="-E2 E3" /></vehicle><vehicle id="veh108" type="car" depart="989.16" departLane="random" departSpeed="max"><route edges="-E3 E1" /></vehicle><vehicle id="veh207" type="car" depart="991.96" departLane="random" departSpeed="max"><route edges="-E3 E2" /></vehicle><vehicle id="veh101" type="car" depart="1010.62" departLane="random" departSpeed="max"><route edges="-E3 E2" /></vehicle><vehicle id="veh186" type="car" depa