<?xml version='1.0' encoding='utf-8'?>
<routes><vType id="car" accel="1.0" decel="4.5" sigma="0.5" length="5" minGap="2.5" maxSpeed="25" guiShape="passenger" /><vehicle id="veh420" type="car" depart="1.54" departLane="random" departSpeed="max"><route edges="-E2 E1" /></vehicle><vehicle id="veh385" type="car" depart="2.6" departLane="random" departSpeed="max"><route edges="-E1 E2" /></vehicle><vehicle id="veh70" type="car" depart="5.42" departLane="random" departSpeed="max"><route edges="-E2 E1" /></vehicle><vehicle id="veh298" type="car" depart="17.12" departLane="random" departSpeed="max"><route edges="-E2 E1" /></vehicle><vehicle id="veh389" type="car" depart="20.24" departLane="random" departSpeed="max"><route edges="-E2 E1" /></vehicle><vehicle id="veh458" type="car" depart="21.88" departLane="random" departSpeed="max"><route edges="-E1 E2" /></vehicle><vehicle id="veh4" type="car" depart="24.65" departLane="random" departSpeed="max"><route edges="-E2 E1" /></vehicle><vehicle id="veh456" type="car" depart="29.66" departLane="random" departSpeed="max"><route edges="-E1 E2" /></vehicle><vehicle id="veh95" type="car" depart="35.71" departLane="random" departSpeed="max"><route edges="-E2 E1" /></vehicle><vehicle id="veh865" type="car" depart="46.35" departLane="random" departSpeed="max"><route edges="-E2 E1" /></vehicle><vehicle id="veh576" type="car" depart="49.73" departLane="random" departSpeed="max"><route edges="-E2 E1" /></vehicle><vehicle id="veh545" type="car" depart="59.99" departLane="random" departSpeed="max"><route edges="-E2 E1" /></vehicle><vehicle id="veh559" type="car" depart="64.86" departLane="random" departSpeed="max"><route edges="-E2 E1" /></vehicle><vehicle id="veh583" type="car" depart="66.69" departLane="random" departSpeed="max"><route edges="-E1 E2" /></vehicle><vehicle id="veh567" type="car" depart="69.75" departLane="random" departSpeed="max"><route edges="-E2 E1" /></vehicle><vehicle id="veh228" type="car" depart="71.74" departLane="random" departSpeed="max"><route edges="-E2 E1" /></vehicle><vehicle id="veh64" type="car" depart="72.5" departLane="random" departSpeed="max"><route edges="-E1 E2" /></vehicle><vehicle id="veh52" type="car" depart="73.93" departLane="random" departSpeed="max"><route edges="-E2 E1" /></vehicle><vehicle id="veh481" type="car" depart="75.74" departLane="random" departSpeed="max"><route edges="-E2 E1" /></vehicle><vehicle id="veh645" type="car" depart="76.06" departLane="random" departSpeed="max"><route edges="-E1 E2" /></vehicle><vehicle id="veh811" type="car" depart="77.23" departLane="random" departSpeed="max"><route edges="-E1 E2" /></vehicle><vehicle id="veh604" type="car" depart="86.81" departLane="random" departSpeed="max"><route edges="-E1 E2" /></vehicle><vehicle id="veh68" type="car" depart="90.97" departLane="random" departSpeed="max"><route edges="-E1 E2" /></vehicle><vehicle id="veh73" type="car" depart="92.65" departLane="random" departSpeed="max"><route edges="-E2 E1" /></vehicle><vehicle id="veh79" type="car" depart="93.09" departLane="random" departSpeed="max"><route edges="-E1 E2" /></vehicle><vehicle id="veh465" type="car" depart="93.42" departLane="random" departSpeed="max"><route edges="-E1 E2" /></vehicle><vehicle id="veh191" type="car" depart="97.86" departLane="random" departSpeed="max"><route edges="-E2 E1" /></vehicle><vehicle id="veh295" type="car" depart="101.2" departLane="random" departSpeed="max"><route edges="-E1 E2" /></vehicle><vehicle id="veh146" type="car" depart="128.02" departLane="random" departSpeed="max"><route edges="-E1 E2" /></vehicle><vehicle id="veh621" type="car" depart="132.32" departLane="random" departSpeed="max"><route edges="-E2 E1" /></vehicle><vehicle id="veh958" type="car" depart="136.47" departLane="random" departSpeed="max"><route edges="-E2 E1" /></vehicle><vehicle id="veh637" type="car" depart="149.72" departLane="random" departSpeed="max"><route edges="-E1 E2" /></vehicle><vehicle id="veh704" type="car" depart="154.01" departLane="random" departSpeed="max"><route edges="-E2 E1" /></vehicle><vehicle id="veh702" type="car" depart="161.01" departLane="random" departSpeed="max"><route edges="-E2 E1" /></vehicle><vehicle id="veh45" type="car" depart="174.29" departLane="random" departSpeed="max"><route edges="-E2 E1" /></vehicle><vehicle id="veh595" type="car" depart="174.99" departLane="random" departSpeed="max"><route edges="-E1 E2" /></vehicle><vehicle id="veh322" type="car" depart="180.0" departLane="random" departSpeed="max"><route edges="-E2 E1" /></vehicle><vehicle id="veh743" type="car" depart="185.41" departLane="random" departSpeed="max"><route edges="-E2 E1" /></vehicle><vehicle id="veh787" type="car" depart="195.07" departLane="random" departSpeed="max"><route edges="-E2 E1" /></vehicle><vehicle id="veh338" type="car" depart="198.61" departLane="random" departSpeed="max"><route edges="-E1 E2" /></vehicle><vehicle id="veh716" type="car" depart="204.17" departLane="random" departSpeed="max"><route edges="-E2 E1" /></vehicle><vehicle id="veh217" type="car" depart="208.14" departLane="random" departSpeed="max"><route edges="-E1 E2" /></vehicle><vehicle id="veh208" type="car" depart="208.87" departLane="random" departSpeed="max"><route edges="-E2 E1" /></vehicle><vehicle id="veh959" type="car" depart="214.05" departLane="random" departSpeed="max"><route edges="-E1 E2" /></vehicle><vehicle id="veh590" type="car" depart="214.31" departLane="random" departSpeed="max"><route edges="-E2 E1" /></vehicle><vehicle id="veh21" type="car" depart="221.63" departLane="random" departSpeed="max"><route edges="-E2 E1" /></vehicle><vehicle id="veh543" type="car" depart="225.09" departLane="random" departSpeed="max"><route edges="-E1 E2" /></vehicle><vehicle id="veh316" type="car" depart="225.53" departLane="random" departSpeed="max"><route edges="-E2 E1" /></vehicle><vehicle id="veh386" type="car" depart="233.22" departLane="random" departSpeed="max"><route edges="-E2 E1" /></vehicle><vehicle id="veh296" type="car" depart="235.65" departLane="random" departSpeed="max"><route edges="-E1 E2" /></vehicle><vehicle id="veh609" type="car" depart="251.11" departLane="random" departSpeed="max"><route edges="-E2 E1" /></vehicle><vehicle id="veh822" type="car" depart="253.05" departLane="random" departSpeed="max"><route edges="-E1 E2" /></vehicle><vehicle id="veh104" type="car" depart="255.1" departLane="random" departSpeed="max"><route edges="-E1 E2" /></vehicle><vehicle id="veh190" type="car" depart="257.5" departLane="random" departSpeed="max"><route edges="-E1 E2" /></vehicle><vehicle id="veh199" type="car" depart="258.45" departLane="random" departSpeed="max"><route edges="-E2 E1" /></vehicle><vehicle id="veh615" type="car" depart="262.5" departLane="random" departSpeed="max"><route edges="-E1 E2" /></vehicle><vehicle id="veh899" type="car" depart="272.1" departLane="random" departSpeed="max"><route edges="-E2 E1" /></vehicle><vehicle id="veh138" type="car" depart="274.73" departLane="random" departSpeed="max"><route edges="-E2 E1" /></vehicle><vehicle id="veh573" type="car" depart="282.26" departLane="random" departSpeed="max"><route edges="-E1 E2" /></vehicle><vehicle id="veh597" type="car" depart="284.81" departLane="random" departSpeed="max"><route edges="-E1 E2" /></vehicle><vehicle id="veh318" type="car" depart="286.85" departLane="random" departSpeed="max"><route edges="-E2 E1" /></vehicle><vehicle id="veh579" type="car" depart="289.82" departLane="random" departSpeed="max"><route edges="-E2 E1" /></vehicle><vehicle id="veh733" type="car" depart="295.6" departLane="random" departSpeed="max"><route edges="-E1 E2" /></vehicle><vehicle id="veh451" type="car" depart="300.61" departLane="random" departSpeed="max"><route edges="-E1 E2" /></vehicle><vehicle id="veh785" type="car" depart="300.68" departLane="random" departSpeed="max"><route edges="-E2 E1" /></vehicle><vehicle id="veh349" type="car" depart="303.31" departLane="random" departSpeed="max"><route edges="-E2 E1" /></vehicle><vehicle id="veh471" type="car" depart="308.1" departLane="random" departSpeed="max"><route edges="-E1 E2" /></vehicle><vehicle id="veh754" type="car" depart="311.86" departLane="random" departSpeed="max"><route edges="-E2 E1" /></vehicle><vehicle id="veh22" type="car" depart="320.06" departLane="random" departSpeed="max"><route edges="-E1 E2" /></vehicle><vehicle id="veh589" type="car" depart="332.43" departLane="random" departSpeed="max"><route edges="-E2 E1" /></vehicle><vehicle id="veh772" type="car" depart="335.66" departLane="random" departSpeed="max"><route edges="-E1 E2" /></vehicle><vehicle id="veh376" type="car" depart="348.75" departLane="random" departSpeed="max"><route edges="-E1 E2" /></vehicle><vehicle id="veh425" type="car" depart="349.71" departLane="random" departSpeed="max"><route edges="-E1 E2" /></vehicle><vehicle id="veh128" type="car" depart="350.37" departLane="random" departSpeed="max"><route edges="-E1 E2" /></vehicle><vehicle id="veh725" type="car" depart="350.86" departLane="random" departSpeed="max"><route edges="-E1 E2" /></vehicle><vehicle id="veh423" type="car" depart="355.65" departLane="random" departSpeed="max"><route edges="-E2 E1" /></vehicle><vehicle id="veh67" type="car" depart="359.96" departLane="random" departSpeed="max"><route edges="-E2 E1" /></vehicle><vehicle id="veh286" type="car" depart="367.99" departLane="random" departSpeed="max"><route edges="-E1 E2" /></vehicle><vehicle id="veh334" type="car" depart="372.53" departLane="random" departSpeed="max"><route edges="-E2 E1" /></vehicle><vehicle id="veh357" type="car" depart="373.34" departLane="random" departSpeed="max"><route edges="-E2 E1" /></vehicle><vehicle id="veh304" type="car" depart="377.14" departLane="random" departSpeed="max"><route edges="-E1 E2" /></vehicle><vehicle id="veh312" type="car" depart="378.5" departLane="random" departSpeed="max"><route edges="-E2 E1" /></vehicle><vehicle id="veh232" type="car" depart="379.65" departLane="random" departSpeed="max"><route edges="-E2 E1" /></vehicle><vehicle id="veh602" type="car" depart="384.23" departLane="random" departSpeed="max"><route edges="-E2 E1" /></vehicle><vehicle id="veh332" type="car" depart="385.74" departLane="random" departSpeed="max"><route edges="-E1 E2" /></vehicle><vehicle id="veh522" type="car" depart="388.22" departLane="random" departSpeed="max"><route edges="-E2 E1" /></vehicle><vehicle id="veh918" type="car" depart="390.63" departLane="random" departSpeed="max"><route edges="-E1 E2" /></vehicle><vehicle id="veh758" type="car" depart="393.95" departLane="random" departSpeed="max"><route edges="-E1 E2" /></vehicle><vehicle id="veh707" type="car" depart="397.32" departLane="random" departSpeed="max"><route edges="-E1 E2" /></vehicle><vehicle id="veh463" type="car" depart="398.94" departLane="random" departSpeed="max"><route edges="-E1 E2" /></vehicle><vehicle id="veh608" type="car" depart="399.02" departLane="random" departSpeed="max"><route edges="-E1 E2" /></vehicle><vehicle id="veh669" type="car" depart="400.63" departLane="random" departSpeed="max"><route edges="-E1 E2" /></vehicle><vehicle id="veh408" type="car" depart="404.84" departLane="random" departSpeed="max"><route edges="-E1 E2" /></vehicle><vehicle id="veh394" type="car" depart="405.86" departLane="random" departSpeed="max"><route edges="-E1 E2" /></vehicle><vehicle id="veh910" type="car" depart="414.06" departLane="random" departSpeed="max"><route edges="-E2 E1" /></vehicle><vehicle id="veh348" type="car" depart="424.82" departLane="random" departSpeed="max"><route edges="-E1 E2" /></vehicle><vehicle id="veh40" type="car" depart="425.85" departLane="random" departSpeed="max"><route edges="-E2 E1" /></vehicle><vehicle id="veh515" type="car" depart="432.22" departLane="random" departSpeed="max"><route edges="-E1 E2" /></vehicle><vehicle id="veh461" type="car" depart="432.92" departLane="random" departSpeed="max"><route edges="-E1 E2" /></vehicle><vehicle id="veh857" type="car" depart="441.58" departLane="random" departSpeed="max"><route edges="-E2 E1" /></vehicle><vehicle id="veh201" type="car" depart="448.76" departLane="random" departSpeed="max"><route edges="-E2 E1" /></vehicle><vehicle id="veh172" type="car" depart="449.71" departLane="random" departSpeed="max"><route edges="-E1 E2" /></vehicle><vehicle id="veh204" type="car" depart="453.81" departLane="random" departSpeed="max"><route edges="-E1 E2" /></vehicle><vehicle id="veh76" type="car" depart="455.4" departLane="random" departSpeed="max"><route edges="-E1 E2" /></vehicle><vehicle id="veh155" type="car" depart="457.93" departLane="random" departSpeed="max"><route edges="-E1 E2" /></vehicle><vehicle id="veh188" type="car" depart="466.7" departLane="random" departSpeed="max"><route edges="-E2 E1" /></vehicle><vehicle id="veh176" type="car" depart="469.83" departLane="random" departSpeed="max"><route edges="-E2 E1" /></vehicle><vehicle id="veh612" type="car" depart="475.41" departLane="random" departSpeed="max"><route edges="-E2 E1" /></vehicle><vehicle id="veh446" type="car" depart="477.46" departLane="random" departSpeed="max"><route edges="-E1 E2" /></vehicle><vehicle id="veh657" type="car" depart="482.78" departLane="random" departSpeed="max"><route edges="-E2 E1" /></vehicle><vehicle id="veh0" type="car" depart="486.77" departLane="random" departSpeed="max"><route edges="-E1 E2" /></vehicle><vehicle id="veh177" type="car" depart="489.54" departLane="random" departSpeed="max"><route edges="-E2 E1" /></vehicle><vehicle id="veh339" type="car" depart="490.74" departLane="random" departSpeed="max"><route edges="-E1 E2" /></vehicle><vehicle id="veh49" type="car" depart="492.95" departLane="random" departSpeed="max"><route edges="-E2 E1" /></vehicle><vehicle id="veh614" type="car" depart="499.18" departLane="random" departSpeed="max"><route edges="-E1 E2" /></vehicle><vehicle id="veh250" type="car" depart="505.15" departLane="random" departSpeed="max"><route edges="-E1 E2" /></vehicle><vehicle id="veh759" type="car" depart="505.37" departLane="random" departSpeed="max"><route edges="-E1 E2" /></vehicle><vehicle id="veh800" type="car" depart="507.31" departLane="random" departSpeed="max"><route edges="-E2 E1" /></vehicle><vehicle id="veh662" type="car" depart="507.93" departLane="random" departSpeed="max"><route edges="-E1 E2" /></vehicle><vehicle id="veh115" type="car" depart="515.85" departLane="random" departSpeed="max"><route edges="-E2 E1" /></vehicle><vehicle id="veh718" type="car" depart="531.27" departLane="random" departSpeed="max"><route edges="-E2 E1" /></vehicle><vehicle id="veh643" type="car" depart="532.35" departLane="random" departSpeed="max"><route edges="-E1 E2" /></vehicle><vehicle id="veh476" type="car" depart="535.15" departLane="random" departSpeed="max"><route edges="-E2 E1" /></vehicle><vehicle id="veh75" type="car" depart="536.94" departLane="random" departSpeed="max"><route edges="-E2 E1" /></vehicle><vehicle id="veh99" type="car" depart="538.77" departLane="random" departSpeed="max"><route edges="-E2 E1" /></vehicle><vehicle id="veh672" type="car" depart="541.62" departLane="random" departSpeed="max"><route edges="-E2 E1" /></vehicle><vehicle id="veh786" type="car" depart="542.05" departLane="random" departSpeed="max"><route edges="-E2 E1" /></vehicle><vehicle id="veh392" type="car" depart="543.25" departLane="random" departSpeed="max"><route edges="-E1 E2" /></vehicle><vehicle id="veh963" type="car" depart="546.58" departLane="random" departSpeed="max"><route edges="-E2 E1" /></vehicle><vehicle id="veh144" type="car" depart="554.41" departLane="random" departSpeed="max"><route edges="-E2 E1" /></vehicle><vehicle id="veh854" type="car" depart="554.52" departLane="random" departSpeed="max"><route edges="-E1 E2" /></vehicle><vehicle id="veh634" type="car" depart="556.26" departLane="random" departSpeed="max"><route edges="-E1 E2" /></vehicle><vehicle id="veh41" type="car" depart="557.31" departLane="random" departSpeed="max"><route edges="-E2 E1" /></vehicle><vehicle id="veh783" type="car" depart="559.43" departLane="random" departSpeed="max"><route edges="-E2 E1" /></vehicle><vehicle id="veh485" type="car" depart="561.8" departLane="random" departSpeed="max"><route edges="-E1 E2" /></vehicle><vehicle id="veh845" type="car" depart="562.65" departLane="random" departSpeed="max"><route edges="-E1 E2" /></vehicle><vehicle id="veh723" type="car" depart="567.62" departLane="random" departSpeed="max"><route edges="-E2 E1" /></vehicle><vehicle id="veh359" type="car" depart="575.72" departLane="random" departSpeed="max"><route edges="-E1 E2" /></vehicle><vehicle id="veh105" type="car" depart="576.31" departLane="random" departSpeed="max"><route edges="-E1 E2" /></vehicle><vehicle id="veh781" type="car" depart="577.65" departLane="random" departSpeed="max"><route edges="-E2 E1" /></vehicle><vehicle id="veh996" type="car" depart="579.77" departLane="random" departSpeed="max"><route edges="-E2 E1" /></vehicle><vehicle id="veh523" type="car" depart="580.94" departLane="random" departSpeed="max"><route edges="-E1 E2" /></vehicle><vehicle id="veh11" type="car" depart="586.37" departLane="random" departSpeed="max"><route edges="-E2 E1" /></vehicle><vehicle id="veh154" type="car" depart="592.27" departLane="random" departSpeed="max"><route edges="-E1 E2" /></vehicle><vehicle id="veh504" type="car" depart="598.14" departLane="random" departSpeed="max"><route edges="-E1 E2" /></vehicle><vehicle id="veh470" type="car" depart="610.17" departLane="random" departSpeed="max"><route edges="-E2 E1" /></vehicle><vehicle id="veh690" type="car" depart="610.2" departLane="random" departSpeed="max"><route edges="-E1 E2" /></vehicle><vehicle id="veh403" type="car" depart="622.59" departLane="random" departSpeed="max"><route edges="-E2 E1" /></vehicle><vehicle id="veh474" type="car" depart="629.89" departLane="random" departSpeed="max"><route edges="-E1 E2" /></vehicle><vehicle id="veh434" type="car" depart="634.25" departLane="random" departSpeed="max"><route edges="-E1 E2" /></vehicle><vehicle id="veh779" type="car" depart="638.47" departLane="random" departSpeed="max"><route edges="-E1 E2" /></vehicle><vehicle id="veh235" type="car" depart="639.53" departLane="random" departSpeed="max"><route edges="-E2 E1" /></vehicle><vehicle id="veh881" type="car" depart="639.75" departLane="random" departSpeed="max"><route edges="-E2 E1" /></vehicle><vehicle id="veh744" type="car" depart="642.19" departLane="random" departSpeed="max"><route edges="-E1 E2" /></vehicle><vehicle id="veh954" type="car" depart="644.88" departLane="random" departSpeed="max"><route edges="-E1 E2" /></vehicle><vehicle id="veh982" type="car" depart="646.57" departLane="random" departSpeed="max"><route edges="-E1 E2" /></vehicle><vehicle id="veh586" type="car" depart="655.36" departLane="random" departSpeed="max"><route edges="-E1 E2" /></vehicle><vehicle id="veh714" type="car" depart="656.12" departLane="random" departSpeed="max"><route edges="-E1 E2" /></vehicle><vehicle id="veh563" type="car" depart="657.94" departLane="random" departSpeed="max"><route edges="-E2 E1" /></vehicle><vehicle id="veh893" type="car" depart="658.35" departLane="random" departSpeed="max"><route edges="-E2 E1" /></vehicle><vehicle id="veh468" type="car" depart="667.53" departLane="random" departSpeed="max"><route edges="-E2 E1" /></vehicle><vehicle id="veh850" type="car" depart="672.64" departLane="random" departSpeed="max"><route edges="-E1 E2" /></vehicle><vehicle id="veh277" type="car" depart="673.8" departLane="random" departSpeed="max"><route edges="-E2 E1" /></vehicle><vehicle id="veh245" type="car" depart="676.31" departLane="random" departSpeed="max"><route edges="-E2 E1" /></vehicle><vehicle id="veh977" type="car" depart="676.51" departLane="random" departSpeed="max"><route edges="-E2 E1" /></vehicle><vehicle id="veh569" type="car" depart="677.09" departLane="random" departSpeed="max"><route edges="-E1 E2" /></vehicle><vehicle id="veh398" type="car" depart="680.26" departLane="random" departSpeed="max"><route edges="-E2 E1" /></vehicle><vehicle id="veh109" type="car" depart="687.49" departLane="random" departSpeed="max"><route edges="-E2 E1" /></vehicle><vehicle id="veh26" type="car" depart="690.63" departLane="random" departSpeed="max"><route edges="-E2 E1" /></vehicle><vehicle id="veh635" type="car" depart="697.28" departLane="random" departSpeed="max"><route edges="-E2 E1" /></vehicle><vehicle id="veh905" type="car" depart="700.46" departLane="random" departSpeed="max"><route edges="-E1 E2" /></vehicle><vehicle id="veh815" type="car" depart="701.8" departLane="random" departSpeed="max"><route edges="-E1 E2" /></vehicle><vehicle id="veh281" type="car" depart="703.09" departLane="random" departSpeed="max"><route edges="-E2 E1" /></vehicle><vehicle id="veh509" type="car" depart="711.86" departLane="random" departSpeed="max"><route edges="-E2 E1" /></vehicle><vehicle id="veh774" type="car" depart="714.1" departLane="random" departSpeed="max"><route edges="-E2 E1" /></vehicle><vehicle id="veh687" type="car" depart="720.16" departLane="random" departSpeed="max"><route edges="-E2 E1" /></vehicle><vehicle id="veh278" type="car" depart="723.52" departLane="random" departSpeed="max"><route edges="-E1 E2" /></vehicle><vehicle id="veh314" type="car" depart="725.87" departLane="random" departSpeed="max"><route edges="-E1 E2" /></vehicle><vehicle id="veh985" type="car" depart="727.76" departLane="random" departSpeed="max"><route edges="-E2 E1" /></vehicle><vehicle id="veh780" type="car" depart="731.8" departLane="random" departSpeed="max"><route edges="-E1 E2" /></vehicle><vehicle id="veh816" type="car" depart="739.9" departLane="random" departSpeed="max"><route edges="-E1 E2" /></vehicle><vehicle id="veh185" type="car" depart="741.9" departLane="random" departSpeed="max"><route edges="-E2 E1" /></vehicle><vehicle id="veh61" type="car" depart="742.97" departLane="random" departSpeed="max"><route edges="-E2 E1" /></vehicle><vehicle id="veh478" type="car" depart="743.06" departLane="random" departSpeed="max"><route edges="-E1 E2" /></vehicle><vehicle id="veh945" type="car" depart="744.61" departLane="random" departSpeed="max"><route edges="-E1 E2" /></vehicle><vehicle id="veh308" type="car" depart="745.27" departLane="random" departSpeed="max"><route edges="-E1 E2" /></vehicle><vehicle id="veh603" type="car" depart="746.53" departLane="random" departSpeed="max"><route edges="-E2 E1" /></vehicle><vehicle id="veh48" type="car" depart="747.16" departLane="random" departSpeed="max"><route edges="-E1 E2" /></vehicle><vehicle id="veh361" type="car" depart="751.65" departLane="random" departSpeed="max"><route edges="-E2 E1" /></vehicle><vehicle id="veh267" type="car" depart="753.35" departLane="random" departSpeed="max"><route edges="-E2 E1" /></vehicle><vehicle id="veh494" type="car" depart="756.17" departLane="random" departSpeed="max"><route edges="-E1 E2" /></vehicle><vehicle id="veh656" type="car" depart="756.19" departLane="random" departSpeed="max"><route edges="-E1 E2" /></vehicle><vehicle id="veh23" type="car" depart="756.87" departLane="random" departSpeed="max"><route edges="-E1 E2" /></vehicle><vehicle id="veh220" type="car" depart="758.17" departLane="random" departSpeed="max"><route edges="-E2 E1" /></vehicle><vehicle id="veh755" type="car" depart="759.9" departLane="random" departSpeed="max"><route edges="-E2 E1" /></vehicle><vehicle id="veh740" type="car" depart="759.97" departLane="random" departSpeed="max"><route edges="-E2 E1" /></vehicle><vehicle id="veh809" type="car" depart="760.44" departLane="random" departSpeed="max"><route edges="-E2 E1" /></vehicle><vehicle id="veh970" type="car" depart="770.94" departLane="random" departSpeed="max"><route edges="-E1 E2" /></vehicle><vehicle id="veh447" type="car" depart="779.12" departLane="random" departSpeed="max"><route edges="-E2 E1" /></vehicle><vehicle id="veh151" type="car" depart="786.61" departLane="random" departSpeed="max"><route edges="-E2 E1" /></vehicle><vehicle id="veh810" type="car" depart="788.12" departLane="random" departSpeed="max"><route edges="-E1 E2" /></vehicle><vehicle id="veh416" type="car" depart="792.66" departLane="random" departSpeed="max"><route edges="-E2 E1" /></vehicle><vehicle id="veh51" type="car" depart="797.25" departLane="random" departSpeed="max"><route edges="-E1 E2" /></vehicle><vehicle id="veh605" type="car" depart="799.24" departLane="random" departSpeed="max"><route edges="-E1 E2" /></vehicle><vehicle id="veh374" type="car" depart="805.52" departLane="random" departSpeed="max"><route edges="-E2 E1" /></vehicle><vehicle id="veh35" type="car" depart="805.74" departLane="random" departSpeed="max"><route edges="-E2 E1" /></vehicle><vehicle id="veh711" type="car" depart="820.71" departLane="random" departSpeed="max"><route edges="-E1 E2" /></vehicle><vehicle id="veh946" type="car" depart="821.9" departLane="random" departSpeed="max"><route edges="-E2 E1" /></vehicle><vehicle id="veh666" type="car" depart="825.83" departLane="random" departSpeed="max"><route edges="-E2 E1" /></vehicle><vehicle id="veh18" type="car" depart="833.08" departLane="random" departSpeed="max"><route edges="-E2 E1" /></vehicle><vehicle id="veh644" type="car" depart="840.79" departLane="random" departSpeed="max"><route edges="-E2 E1" /></vehicle><vehicle id="veh261" type="car" depart="843.24" departLane="random" departSpeed="max"><route edges="-E1 E2" /></vehicle><vehicle id="veh869" type="car" depart="848.98" departLane="random" departSpeed="max"><route edges="-E1 E2" /></vehicle><vehicle id="veh397" type="car" depart="853.85" departLane="random" departSpeed="max"><route edges="-E1 E2" /></vehicle><vehicle id="veh913" type="car" depart="858.96" departLane="random" departSpeed="max"><route edges="-E1 E2" /></vehicle><vehicle id="veh284" type="car" depart="861.83" departLane="random" departSpeed="max"><route edges="-E2 E1" /></vehicle><vehicle id="veh149" type="car" depart="865.35" departLane="random" departSpeed="max"><route edges="-E1 E2" /></vehicle><vehicle id="veh679" type="car" depart="868.44" departLane="random" departSpeed="max"><route edges="-E2 E1" /></vehicle><vehicle id="veh122" type="car" depart="872.79" departLane="random" departSpeed="max"><route edges="-E1 E2" /></vehicle><vehicle id="veh222" type="car" depart="883.79" departLane="random" departSpeed="max"><route edges="-E1 E2" /></vehicle><vehicle id="veh236" type="car" depart="888.24" departLane="random" departSpeed="max"><route edges="-E1 E2" /></vehicle><vehicle id="veh44" type="car" depart="889.15" departLane="random" departSpeed="max"><route edges="-E1 E2" /></vehicle><vehicle id="veh532" type="car" depart="890.46" departLane="random" departSpeed="max"><route edges="-E2 E1" /></vehicle><vehicle id="veh991" type="car" depart="890.68" departLane="random" departSpeed="max"><route edges="-E1 E2" /></vehicle><vehicle id="veh616" type="car" depart="891.0" departLane="random" departSpeed="max"><route edges="-E1 E2" /></vehicle><vehicle id="veh950" type="car" depart="894.85" departLane="random" departSpeed="max"><route edges="-E1 E2" /></vehicle><vehicle id="veh253" type="car" depart="902.46" departLane="random" departSpeed="max"><route edges="-E1 E2" /></vehicle><vehicle id="veh838" type="car" depart="907.08" departLane="random" departSpeed="max"><route edges="-E1 E2" /></vehicle><vehicle id="veh508" type="car" depart="912.11" departLane="random" departSpeed="max"><route edges="-E2 E1" /></vehicle><vehicle id="veh116" type="car" depart="914.26" departLane="random" departSpeed="max"><route edges="-E2 E1" /></vehicle><vehicle id="veh922" type="car" depart="922.33" departLane="random" departSpeed="max"><route edges="-E2 E1" /></vehicle><vehicle id="veh163" type="car" depart="923.59" departLane="random" departSpeed="max"><route edges="-E2 E1" /></vehicle><vehicle id="veh196" type="car" depart="924.18" departLane="random" departSpeed="max"><route edges="-E2 E1" /></vehicle><vehicle id="veh216" type="car" depart="925.09" departLane="random" departSpeed="max"><route edges="-E1 E2" /></vehicle><vehicle id="veh46" type="car" depart="925.67" departLane="random" departSpeed="max"><route edges="-E2 E1" /></vehicle><vehicle id="veh119" type="car" depart="938.93" departLane="random" departSpeed="max"><route edges="-E1 E2" /></vehicle><vehicle id="veh511" type="car" depart="944.07" departLane="random" departSpeed="max"><route edges="-E2 E1" /></vehicle><vehicle id="veh531" type="car" depart="947.17" departLane="random" departSpeed="max"><route edges="-E2 E1" /></vehicle><vehicle id="veh167" type="car" depart="948.29" departLane="random" departSpeed="max"><route edges="-E2 E1" /></vehicle><vehicle id="veh341" type="car" depart="948.86" departLane="random" departSpeed="max"><route edges="-E2 E1" /></vehicle><vehicle id="veh840" type="car" depart="956.7" departLane="random" departSpeed="max"><route edges="-E2 E1" /></vehicle><vehicle id="veh930" type="car" depart="957.52" departLane="random" departSpeed="max"><route edges="-E2 E1" /></vehicle><vehicle id="veh951" type="car" depart="957.94" departLane="random" departSpeed="max"><route edges="-E2 E1" /></vehicle><vehicle id="veh331" type="car" depart="968.78" departLane="random" departSpeed="max"><route edges="-E2 E1" /></vehicle><vehicle id="veh715" type="car" depart="971.98" departLane="random" departSpeed="max"><route edges="-E1 E2" /></vehicle><vehicle id="veh457" type="car" depart="976.19" departLane="random" departSpeed="max"><route edges="-E2 E1" /></vehicle><vehicle id="veh925" type="car" depart="979.64" departLane="random" departSpeed="max"><route edges="-E1 E2" /></vehicle><vehicle id="veh62" type="car" depart="981.73" departLane="random" departSpeed="max"><route edges="-E1 E2" /></vehicle><vehicle id="veh618" type="car" depart="985.37" departLane="random" departSpeed="max"><route edges="-E2 E1" /></vehicle><vehicle id="veh890" type="car" depart="989.67"